<?xml version="1.0" encoding="UTF-8"?>

<!-- generated on 2022-10-26 12:05:50.364396 by osmWebWizard.py v1_14_1+0000-f654d7b963e
<configuration>
    <end value="3600"/>
    <fringe-factor value="5.0"/>
    <fringe-start-attributes value="departSpeed=&quot;max&quot;"/>
    <min-distance value="600.0"/>
    <net-file value="C:\Users\adrianfi\Sumo\2022-10-26-12-04-09\osm.net.xml"/>
    <period value="1.0481291227067242"/>
    <route-file value="C:\Users\adrianfi\Sumo\2022-10-26-12-04-09\osm.bus.rou.xml"/>
    <trip-attributes value="departLane=&quot;best&quot;"/>
    <output-trip-file value="C:\Users\adrianfi\Sumo\2022-10-26-12-04-09\osm.bus.trips.xml"/>
    <prefix value="bus"/>
    <validate value="True"/>
    <vclass value="bus"/>
    <vehicle-class value="bus"/>
</configuration>
-->

<!-- generated on 2022-10-26 12:05:43 by Eclipse SUMO duarouter Version 1.14.1
<configuration xmlns:xsi="http://www.w3.org/2001/XMLSchema-instance" xsi:noNamespaceSchemaLocation="http://sumo.dlr.de/xsd/duarouterConfiguration.xsd">

    <input>
        <net-file value="C:\Users\adrianfi\Sumo\2022-10-26-12-04-09\osm.net.xml"/>
        <route-files value="C:\Users\adrianfi\Sumo\2022-10-26-12-04-09\osm.bus.trips.xml"/>
    </input>

    <output>
        <output-file value="C:\Users\adrianfi\Sumo\2022-10-26-12-04-09\osm.bus.trips.xml.tmp"/>
        <alternatives-output value="NUL"/>
        <write-trips value="true"/>
    </output>

    <time>
        <begin value="0"/>
        <end value="3600"/>
    </time>

    <report>
        <no-warnings value="true"/>
        <ignore-errors value="true"/>
        <no-step-log value="true"/>
    </report>

</configuration>
-->

<routes xmlns:xsi="http://www.w3.org/2001/XMLSchema-instance" xsi:noNamespaceSchemaLocation="http://sumo.dlr.de/xsd/routes_file.xsd">
    <vType id="bus_bus" vClass="bus"/>
    <trip id="bus0" type="bus_bus" depart="0.00" departLane="best" from="296365839#0" to="-160116639"/>
    <trip id="bus1" type="bus_bus" depart="1.05" departLane="best" from="-35352258#1" to="-35350573#0"/>
    <trip id="bus2" type="bus_bus" depart="2.10" departLane="best" from="35351261#1" to="35347708#1"/>
    <trip id="bus3" type="bus_bus" depart="3.14" departLane="best" from="704989291#1" to="-26250323#9"/>
    <trip id="bus4" type="bus_bus" depart="4.19" departLane="best" from="-881754517#1" to="-164950992#0"/>
    <trip id="bus5" type="bus_bus" depart="5.24" departLane="best" from="-35348157#1" to="180425114#7"/>
    <trip id="bus6" type="bus_bus" depart="6.29" departLane="best" from="-160120469#0" to="-35348709"/>
    <trip id="bus7" type="bus_bus" depart="7.34" departLane="best" from="35127743#12" to="26249817#8"/>
    <trip id="bus8" type="bus_bus" depart="8.39" departLane="best" from="-35348302#1" to="27249339"/>
    <trip id="bus9" type="bus_bus" depart="9.43" departLane="best" from="473466385#6" to="-121645853"/>
    <trip id="bus10" type="bus_bus" depart="10.48" departLane="best" from="472657644#0" to="35349257"/>
    <trip id="bus11" type="bus_bus" depart="11.53" departLane="best" from="-54179203#0" to="-35345509"/>
    <trip id="bus12" type="bus_bus" depart="12.58" departLane="best" from="93665475#1" to="-5916592#2"/>
    <trip id="bus13" type="bus_bus" depart="13.63" departLane="best" from="-26250323#8" to="-26335272#2"/>
    <trip id="bus14" type="bus_bus" depart="14.67" departLane="best" from="55729654#1" to="27764789#3"/>
    <trip id="bus15" type="bus_bus" depart="15.72" departLane="best" from="172228343#1" to="93678507"/>
    <trip id="bus16" type="bus_bus" depart="16.77" departLane="best" from="-69830417#1" to="26267675#3"/>
    <trip id="bus17" type="bus_bus" depart="17.82" departLane="best" from="54364377#1" to="28004920"/>
    <trip id="bus18" type="bus_bus" depart="18.87" departLane="best" from="55758870#4" to="27121077#2"/>
    <trip id="bus19" type="bus_bus" depart="19.91" departLane="best" from="35348856#1" to="-172228334#0"/>
    <trip id="bus20" type="bus_bus" depart="20.96" departLane="best" from="-35348863#1" to="-472611896#1"/>
    <trip id="bus21" type="bus_bus" depart="22.01" departLane="best" from="-26249137#1" to="-35351281#12"/>
    <trip id="bus22" type="bus_bus" depart="23.06" departLane="best" from="-26320855#1" to="-459829774#0"/>
    <trip id="bus23" type="bus_bus" depart="24.11" departLane="best" from="28054700#0" to="-829319571#0"/>
    <trip id="bus24" type="bus_bus" depart="25.16" departLane="best" from="-56699034#1" to="-35349504#0"/>
    <trip id="bus25" type="bus_bus" depart="26.20" departLane="best" from="-35351661#1" to="851011716"/>
    <trip id="bus26" type="bus_bus" depart="27.25" departLane="best" departSpeed="max" from="34165676#0" to="27793039"/>
    <trip id="bus27" type="bus_bus" depart="28.30" departLane="best" from="-33653170#18" to="35351479"/>
    <trip id="bus28" type="bus_bus" depart="29.35" departLane="best" from="-288252171#4" to="-859881538#12"/>
    <trip id="bus29" type="bus_bus" depart="30.40" departLane="best" from="93805098#1" to="35345275#0"/>
    <trip id="bus30" type="bus_bus" depart="31.44" departLane="best" from="254696418#5" to="35348302#0"/>
    <trip id="bus31" type="bus_bus" depart="32.49" departLane="best" from="55672940#0" to="459829765#1"/>
    <trip id="bus32" type="bus_bus" depart="33.54" departLane="best" from="-35348936#1" to="-170264374#1"/>
    <trip id="bus33" type="bus_bus" depart="34.59" departLane="best" departSpeed="max" from="-460548261#1" to="-437057261#1"/>
    <trip id="bus34" type="bus_bus" depart="35.64" departLane="best" departSpeed="max" from="-35347542#1" to="859881541#0"/>
    <trip id="bus35" type="bus_bus" depart="36.68" departLane="best" from="56699076#1" to="-55729632#2"/>
    <trip id="bus36" type="bus_bus" depart="37.73" departLane="best" from="35345446" to="-93670771#1"/>
    <trip id="bus37" type="bus_bus" depart="38.78" departLane="best" from="820298956" to="157801815#2"/>
    <trip id="bus38" type="bus_bus" depart="39.83" departLane="best" from="-35351539#3" to="-35352114#1"/>
    <trip id="bus39" type="bus_bus" depart="40.88" departLane="best" from="26227046#3" to="-406699899#2"/>
    <trip id="bus40" type="bus_bus" depart="41.93" departLane="best" from="26267608#1" to="771129065#3"/>
    <trip id="bus41" type="bus_bus" depart="42.97" departLane="best" from="-81766078#15" to="-35350228#0"/>
    <trip id="bus42" type="bus_bus" depart="44.02" departLane="best" from="970684505" to="187887693"/>
    <trip id="bus43" type="bus_bus" depart="45.07" departLane="best" departSpeed="max" from="-26250020" to="-172228351#1"/>
    <trip id="bus44" type="bus_bus" depart="46.12" departLane="best" from="-26335419#7" to="290560886#1"/>
    <trip id="bus45" type="bus_bus" depart="47.17" departLane="best" from="459829783#1" to="-938175973#1"/>
    <trip id="bus46" type="bus_bus" depart="48.21" departLane="best" from="-26226991#4" to="-889629197#2"/>
    <trip id="bus47" type="bus_bus" depart="49.26" departLane="best" from="970684496#0" to="26237553#1"/>
    <trip id="bus48" type="bus_bus" depart="50.31" departLane="best" from="93678461#2" to="55758870#6"/>
    <trip id="bus49" type="bus_bus" depart="51.36" departLane="best" from="-13820559#1" to="35350999"/>
    <trip id="bus50" type="bus_bus" depart="52.41" departLane="best" from="35347219" to="26249137#2"/>
    <trip id="bus51" type="bus_bus" depart="53.45" departLane="best" from="-35351661#0" to="35345336#0"/>
    <trip id="bus52" type="bus_bus" depart="54.50" departLane="best" from="-26335680#4" to="1030425479#0"/>
    <trip id="bus53" type="bus_bus" depart="55.55" departLane="best" from="-93797974#1" to="93665411"/>
    <trip id="bus54" type="bus_bus" depart="56.60" departLane="best" from="56699062#3" to="-426536852#2"/>
    <trip id="bus55" type="bus_bus" depart="57.65" departLane="best" from="157802100#0" to="-35347198#1"/>
    <trip id="bus56" type="bus_bus" depart="58.70" departLane="best" from="81766078#11" to="56698980#0"/>
    <trip id="bus57" type="bus_bus" depart="59.74" departLane="best" from="-445393523#5" to="35345244#1"/>
    <trip id="bus58" type="bus_bus" depart="60.79" departLane="best" from="272116590#3" to="-35345434#3"/>
    <trip id="bus59" type="bus_bus" depart="61.84" departLane="best" from="37272530#3" to="26249423#2"/>
    <trip id="bus60" type="bus_bus" depart="62.89" departLane="best" from="437057544#1" to="26237662#0"/>
    <trip id="bus61" type="bus_bus" depart="63.94" departLane="best" from="-1029696954#4" to="-55756971#0"/>
    <trip id="bus62" type="bus_bus" depart="64.98" departLane="best" from="-157801827#0" to="837183123#0"/>
    <trip id="bus63" type="bus_bus" depart="66.03" departLane="best" from="580512820#1" to="555704734#0"/>
    <trip id="bus64" type="bus_bus" depart="67.08" departLane="best" departSpeed="max" from="-459829777#1" to="-187864176#2"/>
    <trip id="bus65" type="bus_bus" depart="68.13" departLane="best" from="56699107#0" to="878367922#0"/>
    <trip id="bus66" type="bus_bus" depart="69.18" departLane="best" from="-26249686#2" to="170265544#0"/>
    <trip id="bus67" type="bus_bus" depart="70.22" departLane="best" from="-26236473" to="426536857#1"/>
    <trip id="bus68" type="bus_bus" depart="71.27" departLane="best" from="38519848#0" to="-27896047#0"/>
    <trip id="bus69" type="bus_bus" depart="72.32" departLane="best" from="1030425485#0" to="26250323#7"/>
    <trip id="bus70" type="bus_bus" depart="73.37" departLane="best" from="-35351549" to="56699037#1"/>
    <trip id="bus71" type="bus_bus" depart="74.42" departLane="best" from="-889629198#5" to="-35349567#1"/>
    <trip id="bus72" type="bus_bus" depart="75.47" departLane="best" from="172365739#1" to="35351481#5"/>
    <trip id="bus73" type="bus_bus" depart="76.51" departLane="best" from="-35346944#0" to="-555704732#1"/>
    <trip id="bus74" type="bus_bus" depart="77.56" departLane="best" from="965864062#3" to="35345983#1"/>
    <trip id="bus75" type="bus_bus" depart="78.61" departLane="best" from="-93670802" to="26226923"/>
    <trip id="bus76" type="bus_bus" depart="79.66" departLane="best" from="-27151672#1" to="-35350729#1"/>
    <trip id="bus77" type="bus_bus" depart="80.71" departLane="best" departSpeed="max" from="-509726426#3" to="27249306"/>
    <trip id="bus78" type="bus_bus" depart="81.75" departLane="best" from="-35348965#0" to="-35350268"/>
    <trip id="bus79" type="bus_bus" depart="82.80" departLane="best" from="-26237527#1" to="33422815#2"/>
    <trip id="bus80" type="bus_bus" depart="83.85" departLane="best" from="-35348907" to="802597228#2"/>
    <trip id="bus81" type="bus_bus" depart="84.90" departLane="best" from="55758844#2" to="-26236454#0"/>
    <trip id="bus82" type="bus_bus" depart="85.95" departLane="best" from="-35349562#0" to="35347257#1"/>
    <trip id="bus83" type="bus_bus" depart="86.99" departLane="best" from="-35347816#0" to="-28004842#5"/>
    <trip id="bus84" type="bus_bus" depart="88.04" departLane="best" from="849595748" to="26346118#5"/>
    <trip id="bus85" type="bus_bus" depart="89.09" departLane="best" from="1030102262#1" to="460548089#0"/>
    <trip id="bus86" type="bus_bus" depart="90.14" departLane="best" from="473466382#3" to="-35348145"/>
    <trip id="bus87" type="bus_bus" depart="91.19" departLane="best" from="-26320726#4" to="1029696953#5"/>
    <trip id="bus88" type="bus_bus" depart="92.24" departLane="best" from="-891328507#1" to="160111621#2"/>
    <trip id="bus89" type="bus_bus" depart="93.28" departLane="best" from="35350650" to="35347485"/>
    <trip id="bus90" type="bus_bus" depart="94.33" departLane="best" departSpeed="max" from="93798511" to="-26335419#3"/>
    <trip id="bus91" type="bus_bus" depart="95.38" departLane="best" from="-828860016#1" to="-67136543#13"/>
    <trip id="bus92" type="bus_bus" depart="96.43" departLane="best" from="55758870#4" to="-35352154"/>
    <trip id="bus93" type="bus_bus" depart="97.48" departLane="best" from="-35346185#0" to="122490995#2"/>
    <trip id="bus94" type="bus_bus" depart="98.52" departLane="best" from="-881754514" to="-459829774#5"/>
    <trip id="bus95" type="bus_bus" depart="99.57" departLane="best" from="-35350573#1" to="829778262#6"/>
    <trip id="bus96" type="bus_bus" depart="100.62" departLane="best" from="-93678443#0" to="55758877"/>
    <trip id="bus97" type="bus_bus" depart="101.67" departLane="best" from="187864182#0" to="-172365962#0"/>
    <trip id="bus99" type="bus_bus" depart="103.76" departLane="best" from="93678429" to="829826694"/>
    <trip id="bus100" type="bus_bus" depart="104.81" departLane="best" from="55729672" to="-35346349"/>
    <trip id="bus101" type="bus_bus" depart="105.86" departLane="best" from="121762903#2" to="-35349674"/>
    <trip id="bus102" type="bus_bus" depart="106.91" departLane="best" from="-81774730#1" to="-207759436#0"/>
    <trip id="bus103" type="bus_bus" depart="107.96" departLane="best" from="-69830417#4" to="93800605#1"/>
    <trip id="bus104" type="bus_bus" depart="109.01" departLane="best" departSpeed="max" from="-35351550" to="460548029#1"/>
    <trip id="bus105" type="bus_bus" depart="110.05" departLane="best" departSpeed="max" from="-93798391#2" to="-938175978"/>
    <trip id="bus106" type="bus_bus" depart="111.10" departLane="best" from="93665475#1" to="970684495#2"/>
    <trip id="bus107" type="bus_bus" depart="112.15" departLane="best" from="250704339#1" to="35350787#1"/>
    <trip id="bus108" type="bus_bus" depart="113.20" departLane="best" from="-28004658#1" to="-48757108#5"/>
    <trip id="bus109" type="bus_bus" depart="114.25" departLane="best" from="93678418#1" to="27151695#2"/>
    <trip id="bus110" type="bus_bus" depart="115.29" departLane="best" from="173233768#1" to="37272416#1"/>
    <trip id="bus111" type="bus_bus" depart="116.34" departLane="best" from="-207759436#1" to="272116590#3"/>
    <trip id="bus112" type="bus_bus" depart="117.39" departLane="best" from="160069327#1" to="55729732"/>
    <trip id="bus113" type="bus_bus" depart="118.44" departLane="best" from="-28004896#0" to="93665500#2"/>
    <trip id="bus114" type="bus_bus" depart="119.49" departLane="best" departSpeed="max" from="-26249228" to="-35347782#1"/>
    <trip id="bus115" type="bus_bus" depart="120.53" departLane="best" from="26335419#6" to="35347547#4"/>
    <trip id="bus116" type="bus_bus" depart="121.58" departLane="best" from="-35349441" to="-27419676#2"/>
    <trip id="bus117" type="bus_bus" depart="122.63" departLane="best" from="700871353#0" to="-35352100"/>
    <trip id="bus118" type="bus_bus" depart="123.68" departLane="best" from="26335419#2" to="28005018#1"/>
    <trip id="bus119" type="bus_bus" depart="124.73" departLane="best" from="-859881538#0" to="272112257"/>
    <trip id="bus120" type="bus_bus" depart="125.78" departLane="best" from="170264388#7" to="848912753#0"/>
    <trip id="bus121" type="bus_bus" depart="126.82" departLane="best" departSpeed="max" from="-35347158" to="35350616"/>
    <trip id="bus122" type="bus_bus" depart="127.87" departLane="best" departSpeed="max" from="-35349592#1" to="-93670773"/>
    <trip id="bus123" type="bus_bus" depart="128.92" departLane="best" from="35346566#1" to="-506587041#0"/>
    <trip id="bus124" type="bus_bus" depart="129.97" departLane="best" from="-460548305#2" to="384457843#0"/>
    <trip id="bus125" type="bus_bus" depart="131.02" departLane="best" from="977577541#1" to="970684499"/>
    <trip id="bus126" type="bus_bus" depart="132.06" departLane="best" from="-26237657#2" to="-35349609#1"/>
    <trip id="bus127" type="bus_bus" depart="133.11" departLane="best" departSpeed="max" from="-35351550" to="845230014"/>
    <trip id="bus128" type="bus_bus" depart="134.16" departLane="best" from="-56699014#2" to="-35345716#0"/>
    <trip id="bus129" type="bus_bus" depart="135.21" departLane="best" from="555700591" to="35349547#6"/>
    <trip id="bus130" type="bus_bus" depart="136.26" departLane="best" from="27249276#3" to="93805084#2"/>
    <trip id="bus131" type="bus_bus" depart="137.30" departLane="best" from="35345416#0" to="-122487637#0"/>
    <trip id="bus132" type="bus_bus" depart="138.35" departLane="best" from="506587032#1" to="-506587032#8"/>
    <trip id="bus133" type="bus_bus" depart="139.40" departLane="best" from="35345983#1" to="851693121#1"/>
    <trip id="bus134" type="bus_bus" depart="140.45" departLane="best" from="-27419645#1" to="-27249300#3"/>
    <trip id="bus135" type="bus_bus" depart="141.50" departLane="best" from="-26335065#2" to="26274048"/>
    <trip id="bus136" type="bus_bus" depart="142.55" departLane="best" from="-35352048#0" to="27792560#1"/>
    <trip id="bus137" type="bus_bus" depart="143.59" departLane="best" from="28005064" to="-426536856#0"/>
    <trip id="bus138" type="bus_bus" depart="144.64" departLane="best" from="122493574#9" to="802597228#15"/>
    <trip id="bus139" type="bus_bus" depart="145.69" departLane="best" from="55729638" to="-26320810#1"/>
    <trip id="bus140" type="bus_bus" depart="146.74" departLane="best" from="-891328507#1" to="-459829767#1"/>
    <trip id="bus141" type="bus_bus" depart="147.79" departLane="best" from="-1088057867#0" to="445464214"/>
    <trip id="bus142" type="bus_bus" depart="148.83" departLane="best" from="288252171#8" to="-387173836"/>
    <trip id="bus143" type="bus_bus" depart="149.88" departLane="best" from="35351405#2" to="26267636#2"/>
    <trip id="bus144" type="bus_bus" depart="150.93" departLane="best" from="-93665421" to="-144946721#1"/>
    <trip id="bus145" type="bus_bus" depart="151.98" departLane="best" from="-26237776#8" to="67136526#7"/>
    <trip id="bus146" type="bus_bus" depart="153.03" departLane="best" from="793055861#1" to="26249859#3"/>
    <trip id="bus147" type="bus_bus" depart="154.07" departLane="best" from="555701724#1" to="27179694#2"/>
    <trip id="bus148" type="bus_bus" depart="155.12" departLane="best" departSpeed="max" from="-27792892" to="-27825684#1"/>
    <trip id="bus149" type="bus_bus" depart="156.17" departLane="best" from="-459829781#1" to="787217946"/>
    <trip id="bus150" type="bus_bus" depart="157.22" departLane="best" from="460548305#4" to="55758870#5"/>
    <trip id="bus151" type="bus_bus" depart="158.27" departLane="best" from="762735230#0" to="-35349514"/>
    <trip id="bus152" type="bus_bus" depart="159.32" departLane="best" from="-35350559" to="-26346118#8"/>
    <trip id="bus153" type="bus_bus" depart="160.36" departLane="best" from="437969246#1" to="67136543#5"/>
    <trip id="bus154" type="bus_bus" depart="161.41" departLane="best" from="-829376210" to="280292101#1"/>
    <trip id="bus155" type="bus_bus" depart="162.46" departLane="best" from="-28004648#1" to="837194163#2"/>
    <trip id="bus156" type="bus_bus" depart="163.51" departLane="best" from="55758906#1" to="93678562#1"/>
    <trip id="bus157" type="bus_bus" depart="164.56" departLane="best" from="481382900#0" to="612273511#2"/>
    <trip id="bus158" type="bus_bus" depart="165.60" departLane="best" from="-160110694#2" to="35351880#0"/>
    <trip id="bus159" type="bus_bus" depart="166.65" departLane="best" from="-506587032#5" to="837663024"/>
    <trip id="bus160" type="bus_bus" depart="167.70" departLane="best" from="464878645#1" to="55758921#4"/>
    <trip id="bus161" type="bus_bus" depart="168.75" departLane="best" from="481382900#0" to="-432106498#2"/>
    <trip id="bus162" type="bus_bus" depart="169.80" departLane="best" from="459829764#3" to="-27179428#0"/>
    <trip id="bus163" type="bus_bus" depart="170.85" departLane="best" from="56698968#1" to="55758863"/>
    <trip id="bus164" type="bus_bus" depart="171.89" departLane="best" departSpeed="max" from="-35348476" to="509726426#0"/>
    <trip id="bus165" type="bus_bus" depart="172.94" departLane="best" from="-93805084#1" to="-54179188#1"/>
    <trip id="bus166" type="bus_bus" depart="173.99" departLane="best" from="460548237#1" to="-35350921#0"/>
    <trip id="bus167" type="bus_bus" depart="175.04" departLane="best" from="-160069341#1" to="-35348265#1"/>
    <trip id="bus168" type="bus_bus" depart="176.09" departLane="best" from="-481382903#2" to="55758925#1"/>
    <trip id="bus169" type="bus_bus" depart="177.13" departLane="best" from="93678392#5" to="-459829779#0"/>
    <trip id="bus170" type="bus_bus" depart="178.18" departLane="best" from="305652291#0" to="-93678392#5"/>
    <trip id="bus171" type="bus_bus" depart="179.23" departLane="best" from="93798391#1" to="26249085#1"/>
    <trip id="bus172" type="bus_bus" depart="180.28" departLane="best" from="851693121#5" to="-27249300#2"/>
    <trip id="bus173" type="bus_bus" depart="181.33" departLane="best" from="93678452#1" to="-35347196"/>
    <trip id="bus174" type="bus_bus" depart="182.37" departLane="best" from="93670764" to="-426536859#1"/>
    <trip id="bus175" type="bus_bus" depart="183.42" departLane="best" from="-26335385#4" to="1030102277#2"/>
    <trip id="bus176" type="bus_bus" depart="184.47" departLane="best" departSpeed="max" from="35350611" to="-55672946"/>
    <trip id="bus177" type="bus_bus" depart="185.52" departLane="best" from="27179654#2" to="219132452#1"/>
    <trip id="bus178" type="bus_bus" depart="186.57" departLane="best" from="-761580386#0" to="27121047#2"/>
    <trip id="bus179" type="bus_bus" depart="187.62" departLane="best" from="-35351062#1" to="35349869"/>
    <trip id="bus180" type="bus_bus" depart="188.66" departLane="best" from="-1030425499#1" to="829826687#2"/>
    <trip id="bus181" type="bus_bus" depart="189.71" departLane="best" from="172229438#2" to="35350910#1"/>
    <trip id="bus182" type="bus_bus" depart="190.76" departLane="best" departSpeed="max" from="35351406" to="35347405"/>
    <trip id="bus183" type="bus_bus" depart="191.81" departLane="best" departSpeed="max" from="-55758863" to="-26227548#1"/>
    <trip id="bus184" type="bus_bus" depart="192.86" departLane="best" from="35346011#1" to="-56671640"/>
    <trip id="bus185" type="bus_bus" depart="193.90" departLane="best" departSpeed="max" from="-460548158#1" to="55729680"/>
    <trip id="bus186" type="bus_bus" depart="194.95" departLane="best" from="35349761" to="-506587042#0"/>
    <trip id="bus187" type="bus_bus" depart="196.00" departLane="best" from="-459829783#1" to="-93678562#0"/>
    <trip id="bus188" type="bus_bus" depart="197.05" departLane="best" from="-82250167#3" to="-48756666"/>
    <trip id="bus189" type="bus_bus" depart="198.10" departLane="best" from="-27249194#1" to="-93801894#0"/>
    <trip id="bus190" type="bus_bus" depart="199.14" departLane="best" from="858716453#0" to="35347713"/>
    <trip id="bus191" type="bus_bus" depart="200.19" departLane="best" from="787217955#0" to="28004658#2"/>
    <trip id="bus192" type="bus_bus" depart="201.24" departLane="best" from="-459816672" to="26250020"/>
    <trip id="bus193" type="bus_bus" depart="202.29" departLane="best" from="-1029696954#3" to="-460553840#3"/>
    <trip id="bus194" type="bus_bus" depart="203.34" departLane="best" from="-93665442" to="27179549#0"/>
    <trip id="bus195" type="bus_bus" depart="204.39" departLane="best" departSpeed="max" from="35345434#0" to="160069341#0"/>
    <trip id="bus196" type="bus_bus" depart="205.43" departLane="best" departSpeed="max" from="-93678424#1" to="-35349674"/>
    <trip id="bus197" type="bus_bus" depart="206.48" departLane="best" from="1030102272#0" to="787217958#1"/>
    <trip id="bus198" type="bus_bus" depart="207.53" departLane="best" from="460548305#3" to="-35346647#2"/>
    <trip id="bus199" type="bus_bus" depart="208.58" departLane="best" from="-26249606#6" to="256392738#4"/>
    <trip id="bus200" type="bus_bus" depart="209.63" departLane="best" from="28004884#3" to="-5916501#1"/>
    <trip id="bus201" type="bus_bus" depart="210.67" departLane="best" from="506587041#0" to="375744688#0"/>
    <trip id="bus202" type="bus_bus" depart="211.72" departLane="best" from="35346681" to="-35350699#0"/>
    <trip id="bus203" type="bus_bus" depart="212.77" departLane="best" from="-35346851#4" to="-160111216"/>
    <trip id="bus204" type="bus_bus" depart="213.82" departLane="best" departSpeed="max" from="-35350104" to="164731204#4"/>
    <trip id="bus205" type="bus_bus" depart="214.87" departLane="best" from="55729680" to="-26237662#1"/>
    <trip id="bus206" type="bus_bus" depart="215.91" departLane="best" from="-845230019#0" to="296365994#5"/>
    <trip id="bus207" type="bus_bus" depart="216.96" departLane="best" from="-35346520" to="35348982"/>
    <trip id="bus208" type="bus_bus" depart="218.01" departLane="best" from="157796115#2" to="-35351943#0"/>
    <trip id="bus209" type="bus_bus" depart="219.06" departLane="best" departSpeed="max" from="35345453" to="-1099902463#1"/>
    <trip id="bus210" type="bus_bus" depart="220.11" departLane="best" from="35352030#7" to="445335265#1"/>
    <trip id="bus211" type="bus_bus" depart="221.16" departLane="best" from="-26335050#1" to="-956182672"/>
    <trip id="bus212" type="bus_bus" depart="222.20" departLane="best" from="-35345244#1" to="93665467#3"/>
    <trip id="bus213" type="bus_bus" depart="223.25" departLane="best" from="167200297#6" to="-172365961#5"/>
    <trip id="bus214" type="bus_bus" depart="224.30" departLane="best" from="-35350497" to="55729687"/>
    <trip id="bus215" type="bus_bus" depart="225.35" departLane="best" from="-93798407#0" to="473466382#1"/>
    <trip id="bus216" type="bus_bus" depart="226.40" departLane="best" from="35346323#1" to="93805084#8"/>
    <trip id="bus217" type="bus_bus" depart="227.44" departLane="best" from="26335460#0" to="904602116#0"/>
    <trip id="bus218" type="bus_bus" depart="228.49" departLane="best" from="701940269" to="27896066#1"/>
    <trip id="bus219" type="bus_bus" depart="229.54" departLane="best" departSpeed="max" from="35349746" to="180425114#3"/>
    <trip id="bus220" type="bus_bus" depart="230.59" departLane="best" from="761580394#2" to="35352290#3"/>
    <trip id="bus221" type="bus_bus" depart="231.64" departLane="best" from="1030102274#1" to="-38519907"/>
    <trip id="bus222" type="bus_bus" depart="232.68" departLane="best" from="-35350268" to="35127743#13"/>
    <trip id="bus223" type="bus_bus" depart="233.73" departLane="best" from="38519848#0" to="26227123#1"/>
    <trip id="bus224" type="bus_bus" depart="234.78" departLane="best" from="27825695#1" to="-459816672"/>
    <trip id="bus225" type="bus_bus" depart="235.83" departLane="best" from="-26249008#1" to="-460548354#1"/>
    <trip id="bus226" type="bus_bus" depart="236.88" departLane="best" from="-35352023" to="-55729702"/>
    <trip id="bus227" type="bus_bus" depart="237.93" departLane="best" from="172365739#9" to="-29031626"/>
    <trip id="bus228" type="bus_bus" depart="238.97" departLane="best" from="-35348995" to="35348886"/>
    <trip id="bus229" type="bus_bus" depart="240.02" departLane="best" departSpeed="max" from="35348936#0" to="-26226859#9"/>
    <trip id="bus230" type="bus_bus" depart="241.07" departLane="best" from="-829778262#5" to="26249686#1"/>
    <trip id="bus231" type="bus_bus" depart="242.12" departLane="best" from="-851693118#2" to="-35349309#0"/>
    <trip id="bus232" type="bus_bus" depart="243.17" departLane="best" from="-859881538#6" to="802597228#11"/>
    <trip id="bus233" type="bus_bus" depart="244.21" departLane="best" from="26250417#5" to="35348965#0"/>
    <trip id="bus234" type="bus_bus" depart="245.26" departLane="best" from="55758822#2" to="437057544#1"/>
    <trip id="bus235" type="bus_bus" depart="246.31" departLane="best" from="-69830487#4" to="-1099909707#1"/>
    <trip id="bus236" type="bus_bus" depart="247.36" departLane="best" from="-55729638" to="38519848#1"/>
    <trip id="bus238" type="bus_bus" depart="249.45" departLane="best" from="-859881535#0" to="370485379#4"/>
    <trip id="bus239" type="bus_bus" depart="250.50" departLane="best" from="180425114#6" to="27589470#1"/>
    <trip id="bus240" type="bus_bus" depart="251.55" departLane="best" from="-93668069" to="-164731204#0"/>
    <trip id="bus241" type="bus_bus" depart="252.60" departLane="best" from="-506587044#5" to="35347852#0"/>
    <trip id="bus242" type="bus_bus" depart="253.65" departLane="best" from="-828911259#2" to="-35346323#1"/>
    <trip id="bus243" type="bus_bus" depart="254.70" departLane="best" from="-970684498#0" to="-27825687#1"/>
    <trip id="bus244" type="bus_bus" depart="255.74" departLane="best" from="27589316#5" to="-160120476#0"/>
    <trip id="bus245" type="bus_bus" depart="256.79" departLane="best" from="-808527167#3" to="26335272#1"/>
    <trip id="bus247" type="bus_bus" depart="258.89" departLane="best" departSpeed="max" from="-27419676#3" to="157801834#4"/>
    <trip id="bus248" type="bus_bus" depart="259.94" departLane="best" from="-173877725#1" to="-859881538#1"/>
    <trip id="bus249" type="bus_bus" depart="260.98" departLane="best" from="-35347550" to="-55758870#3"/>
    <trip id="bus250" type="bus_bus" depart="262.03" departLane="best" from="37272530#10" to="-859881538#10"/>
    <trip id="bus251" type="bus_bus" depart="263.08" departLane="best" from="35352100" to="555721356"/>
    <trip id="bus252" type="bus_bus" depart="264.13" departLane="best" from="-35350762#1" to="-26249748#1"/>
    <trip id="bus253" type="bus_bus" depart="265.18" departLane="best" from="-157801827#0" to="26249423#3"/>
    <trip id="bus254" type="bus_bus" depart="266.22" departLane="best" from="991480744" to="-771129065#0"/>
    <trip id="bus255" type="bus_bus" depart="267.27" departLane="best" from="35127743#2" to="459829782#0"/>
    <trip id="bus256" type="bus_bus" depart="268.32" departLane="best" from="35345264#1" to="38519855#0"/>
    <trip id="bus257" type="bus_bus" depart="269.37" departLane="best" from="906851139#1" to="-35348760#2"/>
    <trip id="bus258" type="bus_bus" depart="270.42" departLane="best" from="-157801832#0" to="-35345434#0"/>
    <trip id="bus259" type="bus_bus" depart="271.47" departLane="best" from="-272131858#1" to="35347307#1"/>
    <trip id="bus260" type="bus_bus" depart="272.51" departLane="best" departSpeed="max" from="26227497#0" to="-35350036"/>