<?xml version="1.0" encoding="UTF-8"?>

<!-- generated on 2022-10-26 12:05:31.370755 by osmWebWizard.py v1_14_1+0000-f654d7b963e
<configuration>
    <allow-fringe.min-length value="1000.0"/>
    <end value="3600"/>
    <fringe-factor value="5.0"/>
    <fringe-start-attributes value="departSpeed=&quot;max&quot;"/>
    <lanes value="True"/>
    <min-distance value="300.0"/>
    <net-file value="C:\Users\adrianfi\Sumo\2022-10-26-12-04-09\osm.net.xml"/>
    <period value="0.3523611609816348"/>
    <route-file value="C:\Users\adrianfi\Sumo\2022-10-26-12-04-09\osm.passenger.rou.xml"/>
    <trip-attributes value="departLane=&quot;best&quot;"/>
    <output-trip-file value="C:\Users\adrianfi\Sumo\2022-10-26-12-04-09\osm.passenger.trips.xml"/>
    <prefix value="veh"/>
    <validate value="True"/>
    <vehicle-class value="passenger"/>
</configuration>
-->

<!-- generated on 2022-10-26 12:05:13 by Eclipse SUMO duarouter Version 1.14.1
<configuration xmlns:xsi="http://www.w3.org/2001/XMLSchema-instance" xsi:noNamespaceSchemaLocation="http://sumo.dlr.de/xsd/duarouterConfiguration.xsd">

    <input>
        <net-file value="C:\Users\adrianfi\Sumo\2022-10-26-12-04-09\osm.net.xml"/>
        <route-files value="C:\Users\adrianfi\Sumo\2022-10-26-12-04-09\osm.passenger.trips.xml"/>
    </input>

    <output>
        <output-file value="C:\Users\adrianfi\Sumo\2022-10-26-12-04-09\osm.passenger.trips.xml.tmp"/>
        <alternatives-output value="NUL"/>
        <write-trips value="true"/>
    </output>

    <time>
        <begin value="0"/>
        <end value="3600"/>
    </time>

    <report>
        <no-warnings value="true"/>
        <ignore-errors value="true"/>
        <no-step-log value="true"/>
    </report>

</configuration>
-->

<routes xmlns:xsi="http://www.w3.org/2001/XMLSchema-instance" xsi:noNamespaceSchemaLocation="http://sumo.dlr.de/xsd/routes_file.xsd">
    <vType id="veh_passenger" vClass="passenger"/>
    <trip id="veh0" type="veh_passenger" depart="0.00" departLane="best" from="35346486" to="-160542746#1"/>
    <trip id="veh1" type="veh_passenger" depart="0.35" departLane="best" departSpeed="max" from="-459829775" to="-35352152#3"/>
    <trip id="veh2" type="veh_passenger" depart="0.70" departLane="best" departSpeed="max" from="437057544#0" to="35350289#3"/>
    <trip id="veh4" type="veh_passenger" depart="1.41" departLane="best" from="-93798390#0" to="-170264374#3"/>
    <trip id="veh5" type="veh_passenger" depart="1.76" departLane="best" departSpeed="max" from="-35349838" to="26237518#1"/>
    <trip id="veh6" type="veh_passenger" depart="2.11" departLane="best" from="-164731204#2" to="-35350247#1"/>
    <trip id="veh7" type="veh_passenger" depart="2.47" departLane="best" departSpeed="max" from="35347262" to="26346159#3"/>
    <trip id="veh8" type="veh_passenger" depart="2.82" departLane="best" departSpeed="max" from="-35350104" to="28010298#0"/>
    <trip id="veh9" type="veh_passenger" depart="3.17" departLane="best" from="55729712" to="-13820559#1"/>
    <trip id="veh10" type="veh_passenger" depart="3.52" departLane="best" from="55729657#0" to="35352030#8"/>
    <trip id="veh11" type="veh_passenger" depart="3.88" departLane="best" from="-67136526#2" to="-35346564"/>
    <trip id="veh12" type="veh_passenger" depart="4.23" departLane="best" from="93665430#0" to="-828911259#3"/>
    <trip id="veh13" type="veh_passenger" depart="4.58" departLane="best" from="-26320993#2" to="-27120688#1"/>
    <trip id="veh14" type="veh_passenger" depart="4.93" departLane="best" from="56699036#0" to="296365994#6"/>
    <trip id="veh15" type="veh_passenger" depart="5.29" departLane="best" from="55729677" to="439391628#0"/>
    <trip id="veh16" type="veh_passenger" depart="5.64" departLane="best" from="26227116#3" to="93678496"/>
    <trip id="veh17" type="veh_passenger" depart="5.99" departLane="best" from="-837183116#15" to="27179654#3"/>
    <trip id="veh18" type="veh_passenger" depart="6.34" departLane="best" from="55758896#0" to="35345714#0"/>
    <trip id="veh19" type="veh_passenger" depart="6.69" departLane="best" from="67136558#1" to="27792625"/>
    <trip id="veh20" type="veh_passenger" depart="7.05" departLane="best" from="35351661#0" to="-172365962#0"/>
    <trip id="veh21" type="veh_passenger" depart="7.40" departLane="best" from="-35350910#1" to="-55729722#2"/>
    <trip id="veh22" type="veh_passenger" depart="7.75" departLane="best" from="-26249817#2" to="-38519863#1"/>
    <trip id="veh23" type="veh_passenger" depart="8.10" departLane="best" from="-26345859#1" to="-54364302"/>
    <trip id="veh24" type="veh_passenger" depart="8.46" departLane="best" from="35346208" to="-93665462#1"/>
    <trip id="veh25" type="veh_passenger" depart="8.81" departLane="best" departSpeed="max" from="-820300029" to="-35351281#1"/>
    <trip id="veh26" type="veh_passenger" depart="9.16" departLane="best" from="-437969246#1" to="856561981"/>
    <trip id="veh27" type="veh_passenger" depart="9.51" departLane="best" from="35347152#0" to="33654405"/>
    <trip id="veh28" type="veh_passenger" depart="9.87" departLane="best" departSpeed="max" from="-35345983#3" to="439391626#0"/>
    <trip id="veh29" type="veh_passenger" depart="10.22" departLane="best" from="-35345304#1" to="-93678525#1"/>
    <trip id="veh30" type="veh_passenger" depart="10.57" departLane="best" from="947451307" to="35347422#1"/>
    <trip id="veh31" type="veh_passenger" depart="10.92" departLane="best" from="26320726#1" to="35351226"/>
    <trip id="veh32" type="veh_passenger" depart="11.28" departLane="best" departSpeed="max" from="56698977#0" to="509726426#3"/>
    <trip id="veh33" type="veh_passenger" depart="11.63" departLane="best" from="-35351062#1" to="-170264388#7"/>
    <trip id="veh34" type="veh_passenger" depart="11.98" departLane="best" from="-55729635" to="-506587031#0"/>
    <trip id="veh35" type="veh_passenger" depart="12.33" departLane="best" from="-35349340#0" to="8630769#1"/>
    <trip id="veh36" type="veh_passenger" depart="12.69" departLane="best" from="761580394#0" to="-719084718#1"/>
    <trip id="veh37" type="veh_passenger" depart="13.04" departLane="best" from="35347782#1" to="-958211417#1"/>
    <trip id="veh38" type="veh_passenger" depart="13.39" departLane="best" from="829778265#2" to="170264387#11"/>
    <trip id="veh39" type="veh_passenger" depart="13.74" departLane="best" from="-437140463#0" to="-459816671#3"/>
    <trip id="veh40" type="veh_passenger" depart="14.09" departLane="best" from="26335021#3" to="-473440376#6"/>
    <trip id="veh41" type="veh_passenger" depart="14.45" departLane="best" from="273259851#1" to="81766078#12"/>
    <trip id="veh42" type="veh_passenger" depart="14.80" departLane="best" from="-93665429" to="-35351943#0"/>
    <trip id="veh43" type="veh_passenger" depart="15.15" departLane="best" from="975815819#0" to="26238184#1"/>
    <trip id="veh44" type="veh_passenger" depart="15.50" departLane="best" departSpeed="max" from="-26320853" to="-174645387#3"/>
    <trip id="veh45" type="veh_passenger" depart="15.86" departLane="best" from="-27179428#0" to="35346444#0"/>
    <trip id="veh46" type="veh_passenger" depart="16.21" departLane="best" from="555700592" to="157796078#10"/>
    <trip id="veh47" type="veh_passenger" depart="16.56" departLane="best" from="-26236439#1" to="-93678574"/>
    <trip id="veh48" type="veh_passenger" depart="16.91" departLane="best" from="970684499" to="26320775#1"/>
    <trip id="veh49" type="veh_passenger" depart="17.27" departLane="best" from="93678452#0" to="69830922#0"/>
    <trip id="veh50" type="veh_passenger" depart="17.62" departLane="best" from="-157796078#5" to="426536856#1"/>
    <trip id="veh51" type="veh_passenger" depart="17.97" departLane="best" departSpeed="max" from="35349746" to="26335272#1"/>
    <trip id="veh52" type="veh_passenger" depart="18.32" departLane="best" from="-437969246#0" to="35347463"/>
    <trip id="veh53" type="veh_passenger" depart="18.68" departLane="best" from="-27179654#3" to="160111618#0"/>
    <trip id="veh54" type="veh_passenger" depart="19.03" departLane="best" from="154029877#2" to="906851140"/>
    <trip id="veh55" type="veh_passenger" depart="19.38" departLane="best" from="761580390#1" to="-473466383#1"/>
    <trip id="veh56" type="veh_passenger" depart="19.73" departLane="best" departSpeed="max" from="170265927" to="-35348542#0"/>
    <trip id="veh57" type="veh_passenger" depart="20.08" departLane="best" from="829778262#1" to="761580385#0"/>
    <trip id="veh58" type="veh_passenger" depart="20.44" departLane="best" from="-506587032#4" to="35347387"/>
    <trip id="veh59" type="veh_passenger" depart="20.79" departLane="best" from="293931233#1" to="-35346349"/>
    <trip id="veh60" type="veh_passenger" depart="21.14" departLane="best" from="472657632#3" to="26335460#2"/>
    <trip id="veh61" type="veh_passenger" depart="21.49" departLane="best" from="506587043#0" to="26320827#0"/>
    <trip id="veh62" type="veh_passenger" depart="21.85" departLane="best" from="-1073437524" to="-794505427"/>
    <trip id="veh63" type="veh_passenger" depart="22.20" departLane="best" from="-160069334#1" to="848912761"/>
    <trip id="veh64" type="veh_passenger" depart="22.55" departLane="best" from="762735154#1" to="55758934#2"/>
    <trip id="veh65" type="veh_passenger" depart="22.90" departLane="best" from="-54363312#1" to="-238215157"/>
    <trip id="veh66" type="veh_passenger" depart="23.26" departLane="best" from="762735152" to="870837787#0"/>
    <trip id="veh67" type="veh_passenger" depart="23.61" departLane="best" from="-26267608#0" to="207408202#1"/>
    <trip id="veh68" type="veh_passenger" depart="23.96" departLane="best" from="-26237776#2" to="473466382#3"/>
    <trip id="veh69" type="veh_passenger" depart="24.31" departLane="best" from="473440376#6" to="-296365994#4"/>
    <trip id="veh70" type="veh_passenger" depart="24.67" departLane="best" from="160116647#0" to="27151683#3"/>
    <trip id="veh71" type="veh_passenger" depart="25.02" departLane="best" from="-437140463#1" to="761580390#1"/>
    <trip id="veh72" type="veh_passenger" depart="25.37" departLane="best" from="-93798398#1" to="-35351365#1"/>
    <trip id="veh73" type="veh_passenger" depart="25.72" departLane="best" from="26227545#2" to="439391629#2"/>
    <trip id="veh74" type="veh_passenger" depart="26.07" departLane="best" departSpeed="max" from="-35348476" to="-69830922#0"/>
    <trip id="veh75" type="veh_passenger" depart="26.43" departLane="best" from="970684496#0" to="35348157#1"/>
    <trip id="veh76" type="veh_passenger" depart="26.78" departLane="best" from="1030425479#0" to="26249606#6"/>
    <trip id="veh77" type="veh_passenger" depart="27.13" departLane="best" from="-27419570#2" to="-35352287#2"/>
    <trip id="veh78" type="veh_passenger" depart="27.48" departLane="best" from="-5916550#5" to="28004920"/>
    <trip id="veh79" type="veh_passenger" depart="27.84" departLane="best" from="-35351192#0" to="-35351967"/>
    <trip id="veh80" type="veh_passenger" depart="28.19" departLane="best" from="-26248976#3" to="35346763#0"/>
    <trip id="veh81" type="veh_passenger" depart="28.54" departLane="best" from="-35351047" to="828911235#0"/>
    <trip id="veh82" type="veh_passenger" depart="28.89" departLane="best" from="67136468#0" to="-26249008#1"/>
    <trip id="veh83" type="veh_passenger" depart="29.25" departLane="best" departSpeed="max" from="-35351550" to="35349592#1"/>
    <trip id="veh84" type="veh_passenger" depart="29.60" departLane="best" from="-35349547#2" to="-33616715#3"/>
    <trip id="veh85" type="veh_passenger" depart="29.95" departLane="best" from="851693119#2" to="27419737#3"/>
    <trip id="veh86" type="veh_passenger" depart="30.30" departLane="best" from="160116640#0" to="555698982#0"/>
    <trip id="veh87" type="veh_passenger" depart="30.66" departLane="best" from="55729678#2" to="-35349504#1"/>
    <trip id="veh89" type="veh_passenger" depart="31.36" departLane="best" from="-93798407#0" to="170996142#3"/>
    <trip id="veh90" type="veh_passenger" depart="31.71" departLane="best" from="38519923" to="35349938#3"/>
    <trip id="veh91" type="veh_passenger" depart="32.06" departLane="best" from="93800607#1" to="-27179428#0"/>
    <trip id="veh92" type="veh_passenger" depart="32.42" departLane="best" from="-93665478#0" to="-829736989#4"/>
    <trip id="veh93" type="veh_passenger" depart="32.77" departLane="best" from="67136558#1" to="-459829767#0"/>
    <trip id="veh94" type="veh_passenger" depart="33.12" departLane="best" departSpeed="max" from="-35347463" to="165228122#0"/>
    <trip id="veh95" type="veh_passenger" depart="33.47" departLane="best" from="-93798390#0" to="-54364303"/>
    <trip id="veh96" type="veh_passenger" depart="33.83" departLane="best" from="-364191396#1" to="845179935#2"/>
    <trip id="veh97" type="veh_passenger" depart="34.18" departLane="best" from="1099899657" to="700871354#0"/>
    <trip id="veh98" type="veh_passenger" depart="34.53" departLane="best" from="26249767#4" to="-180425114#7"/>
    <trip id="veh100" type="veh_passenger" depart="35.24" departLane="best" from="93678394#0" to="845230018#0"/>
    <trip id="veh101" type="veh_passenger" depart="35.59" departLane="best" from="56699062#3" to="-35347410"/>
    <trip id="veh102" type="veh_passenger" depart="35.94" departLane="best" from="165269075#2" to="-35351479"/>
    <trip id="veh103" type="veh_passenger" depart="36.29" departLane="best" from="-93665450" to="-242517652"/>
    <trip id="veh104" type="veh_passenger" depart="36.65" departLane="best" from="-837183116#4" to="93805084#0"/>
    <trip id="veh105" type="veh_passenger" depart="37.00" departLane="best" from="-437140464" to="555698979#1"/>
    <trip id="veh106" type="veh_passenger" depart="37.35" departLane="best" from="157796078#17" to="157796078#2"/>
    <trip id="veh107" type="veh_passenger" depart="37.70" departLane="best" from="93665431#0" to="970684498#1"/>
    <trip id="veh108" type="veh_passenger" depart="38.06" departLane="best" from="26267636#3" to="387173839#1"/>
    <trip id="veh109" type="veh_passenger" depart="38.41" departLane="best" from="-296365995" to="-55758870#7"/>
    <trip id="veh110" type="veh_passenger" depart="38.76" departLane="best" departSpeed="max" from="93678393" to="27792952"/>
    <trip id="veh111" type="veh_passenger" depart="39.11" departLane="best" from="26237662#1" to="460553840#1"/>
    <trip id="veh112" type="veh_passenger" depart="39.46" departLane="best" from="-26226859#4" to="28004609#1"/>
    <trip id="veh113" type="veh_passenger" depart="39.82" departLane="best" from="170996142#3" to="5916065#2"/>
    <trip id="veh114" type="veh_passenger" depart="40.17" departLane="best" from="-33653170#18" to="93665475#1"/>
    <trip id="veh115" type="veh_passenger" depart="40.52" departLane="best" from="-26249817#5" to="-35348990#0"/>
    <trip id="veh116" type="veh_passenger" depart="40.87" departLane="best" from="27792641#0" to="35350176#0"/>
    <trip id="veh117" type="veh_passenger" depart="41.23" departLane="best" from="-35351418" to="-28004842#4"/>
    <trip id="veh118" type="veh_passenger" depart="41.58" departLane="best" from="793055863#0" to="-459816670#2"/>
    <trip id="veh119" type="veh_passenger" depart="41.93" departLane="best" from="27792509#1" to="35345741#1"/>
    <trip id="veh120" type="veh_passenger" depart="42.28" departLane="best" from="-93678620#1" to="27896066#7"/>
    <trip id="veh121" type="veh_passenger" depart="42.64" departLane="best" from="207408202#3" to="851693118#3"/>
    <trip id="veh122" type="veh_passenger" depart="42.99" departLane="best" departSpeed="max" from="-35348679#1" to="38519911#0"/>
    <trip id="veh123" type="veh_passenger" depart="43.34" departLane="best" from="-35351577#1" to="-96028573"/>
    <trip id="veh124" type="veh_passenger" depart="43.69" departLane="best" from="35348948#2" to="-56671646"/>
    <trip id="veh125" type="veh_passenger" depart="44.05" departLane="best" from="-55729638" to="464721548#2"/>
    <trip id="veh126" type="veh_passenger" depart="44.40" departLane="best" from="-26249055" to="170264379#3"/>
    <trip id="veh127" type="veh_passenger" depart="44.75" departLane="best" from="98682542#2" to="970684502"/>
    <trip id="veh128" type="veh_passenger" depart="45.10" departLane="best" from="-26249137#0" to="-35351414"/>
    <trip id="veh129" type="veh_passenger" depart="45.45" departLane="best" from="-437140464" to="851011726#0"/>
    <trip id="veh130" type="veh_passenger" depart="45.81" departLane="best" from="762735231#0" to="786367625"/>
    <trip id="veh131" type="veh_passenger" depart="46.16" departLane="best" departSpeed="max" from="-820300029" to="-35346774"/>
    <trip id="veh132" type="veh_passenger" depart="46.51" departLane="best" from="55758934#3" to="35352393"/>
    <trip id="veh133" type="veh_passenger" depart="46.86" departLane="best" from="296365842#1" to="938175973#1"/>
    <trip id="veh134" type="veh_passenger" depart="47.22" departLane="best" from="55758831#0" to="-56671633"/>
    <trip id="veh135" type="veh_passenger" depart="47.57" departLane="best" from="35348497" to="858716456#0"/>
    <trip id="veh136" type="veh_passenger" depart="47.92" departLane="best" departSpeed="max" from="-27793039" to="-27792839#0"/>
    <trip id="veh137" type="veh_passenger" depart="48.27" departLane="best" from="-27121047#1" to="27179720#1"/>
    <trip id="veh138" type="veh_passenger" depart="48.63" departLane="best" from="-459829764#4" to="331607912#2"/>
    <trip id="veh139" type="veh_passenger" depart="48.98" departLane="best" from="37272451#0" to="-35350782"/>
    <trip id="veh140" type="veh_passenger" depart="49.33" departLane="best" from="35346011#1" to="-473470382#0"/>
    <trip id="veh141" type="veh_passenger" depart="49.68" departLane="best" from="167220579#0" to="828911234"/>
    <trip id="veh142" type="veh_passenger" depart="50.04" departLane="best" from="56699024#0" to="-26345859#1"/>
    <trip id="veh143" type="veh_passenger" depart="50.39" departLane="best" from="-93798407#0" to="-54179419"/>
    <trip id="veh144" type="veh_passenger" depart="50.74" departLane="best" from="-121645853" to="506587035"/>
    <trip id="veh145" type="veh_passenger" depart="51.09" departLane="best" from="35346324" to="-473440376#2"/>
    <trip id="veh146" type="veh_passenger" depart="51.44" departLane="best" from="445335264#0" to="27179599#1"/>
    <trip id="veh147" type="veh_passenger" depart="51.80" departLane="best" from="-93805098#1" to="-157796078#8"/>
    <trip id="veh148" type="veh_passenger" depart="52.15" departLane="best" from="-26249414#3" to="787217950#1"/>
    <trip id="veh149" type="veh_passenger" depart="52.50" departLane="best" from="828860016#2" to="26733250#1"/>
    <trip id="veh150" type="veh_passenger" depart="52.85" departLane="best" from="55758938#3" to="27826197"/>
    <trip id="veh151" type="veh_passenger" depart="53.21" departLane="best" from="-289103666#1" to="-296365994#12"/>
    <trip id="veh152" type="veh_passenger" depart="53.56" departLane="best" from="-54364516" to="81766078#4"/>
    <trip id="veh153" type="veh_passenger" depart="53.91" departLane="best" from="555704733#0" to="69830487#4"/>
    <trip id="veh154" type="veh_passenger" depart="54.26" departLane="best" from="80861926#2" to="-35351281#4"/>
    <trip id="veh155" type="veh_passenger" depart="54.62" departLane="best" from="-35355153#1" to="-27249194#3"/>
    <trip id="veh156" type="veh_passenger" depart="54.97" departLane="best" from="506587046#0" to="787217954"/>
    <trip id="veh157" type="veh_passenger" depart="55.32" departLane="best" from="-93670764" to="35345919#1"/>
    <trip id="veh158" type="veh_passenger" depart="55.67" departLane="best" from="-296365994#9" to="849595748"/>
    <trip id="veh159" type="veh_passenger" depart="56.03" departLane="best" from="700871353#0" to="93678568#0"/>
    <trip id="veh160" type="veh_passenger" depart="56.38" departLane="best" from="55729723#1" to="787217945#0"/>
    <trip id="veh161" type="veh_passenger" depart="56.73" departLane="best" departSpeed="max" from="-160542739#6" to="459829767#0"/>
    <trip id="veh162" type="veh_passenger" depart="57.08" departLane="best" from="-56671649#1" to="851011711"/>
    <trip id="veh163" type="veh_passenger" depart="57.43" departLane="best" from="55673024#7" to="704989282"/>
    <trip id="veh164" type="veh_passenger" depart="57.79" departLane="best" from="55729723#1" to="-48756666"/>
    <trip id="veh165" type="veh_passenger" depart="58.14" departLane="best" departSpeed="max" from="54364306" to="-273278493#2"/>
    <trip id="veh166" type="veh_passenger" depart="58.49" departLane="best" from="749233495#0" to="67136543#9"/>
    <trip id="veh167" type="veh_passenger" depart="58.84" departLane="best" from="-35350247#2" to="55758837#0"/>
    <trip id="veh168" type="veh_passenger" depart="59.20" departLane="best" departSpeed="max" from="157801819" to="-5916550#3"/>
    <trip id="veh169" type="veh_passenger" depart="59.55" departLane="best" from="555704730#0" to="-37272415#1"/>
    <trip id="veh170" type="veh_passenger" depart="59.90" departLane="best" departSpeed="max" from="-160120484#2" to="-35349609#1"/>
    <trip id="veh171" type="veh_passenger" depart="60.25" departLane="best" from="-55758867#0" to="704989291#0"/>
    <trip id="veh172" type="veh_passenger" depart="60.61" departLane="best" from="93670811#1" to="-54364306"/>
    <trip id="veh173" type="veh_passenger" depart="60.96" departLane="best" from="35346677" to="-977588274#0"/>
    <trip id="veh174" type="veh_passenger" depart="61.31" departLane="best" from="93798398#0" to="26335050#1"/>
    <trip id="veh175" type="veh_passenger" depart="61.66" departLane="best" from="858716455#1" to="-27792822#7"/>
    <trip id="veh176" type="veh_passenger" depart="62.02" departLane="best" departSpeed="max" from="93678436#0" to="-35348542#0"/>
    <trip id="veh177" type="veh_passenger" depart="62.37" departLane="best" from="93666245#0" to="-48755962#2"/>
    <trip id="veh178" type="veh_passenger" depart="62.72" departLane="best" from="-27151619#2" to="160111618#0"/>
    <trip id="veh179" type="veh_passenger" depart="63.07" departLane="best" departSpeed="max" from="38519918" to="-704989291#1"/>
    <trip id="veh180" type="veh_passenger" depart="63.43" departLane="best" from="288252171#1" to="26249008#2"/>
    <trip id="veh181" type="veh_passenger" depart="63.78" departLane="best" from="-851693118#3" to="27792560#1"/>
    <trip id="veh182" type="veh_passenger" depart="64.13" departLane="best" from="-38519848#0" to="37272530#7"/>
    <trip id="veh183" type="veh_passenger" depart="64.48" departLane="best" from="-1099899219" to="845230011#0"/>
    <trip id="veh184" type="veh_passenger" depart="64.83" departLane="best" from="26227497#2" to="406699899#6"/>
    <trip id="veh185" type="veh_passenger" depart="65.19" departLane="best" departSpeed="max" from="445393523#0" to="35349737"/>
    <trip id="veh186" type="veh_passenger" depart="65.54" departLane="best" from="-80861926#3" to="-26238200#2"/>
    <trip id="veh187" type="veh_passenger" depart="65.89" departLane="best" departSpeed="max" from="35348542#0" to="-808527168#2"/>
    <trip id="veh188" type="veh_passenger" depart="66.24" departLane="best" departSpeed="max" from="-55673010" to="56699093#2"/>
    <trip id="veh189" type="veh_passenger" depart="66.60" departLane="best" from="37272530#6" to="-56671759#0"/>
    <trip id="veh190" type="veh_passenger" depart="66.95" departLane="best" from="-555702783#0" to="1099902463#2"/>
    <trip id="veh191" type="veh_passenger" depart="67.30" departLane="best" from="-93665468" to="-55758870#0"/>
    <trip id="veh192" type="veh_passenger" depart="67.65" departLane="best" from="-27589316#2" to="144946721#2"/>
    <trip id="veh193" type="veh_passenger" depart="68.01" departLane="best" from="859881534" to="35350386#0"/>
    <trip id="veh195" type="veh_passenger" depart="68.71" departLane="best" from="-506587043#6" to="27121047#2"/>
    <trip id="veh196" type="veh_passenger" depart="69.06" departLane="best" from="-1073437523" to="-55729681"/>
    <trip id="veh197" type="veh_passenger" depart="69.42" departLane="best" departSpeed="max" from="-947451305#2" to="27792990"/>
    <trip id="veh198" type="veh_passenger" depart="69.77" departLane="best" from="35347763#1" to="170265928"/>
    <trip id="veh199" type="veh_passenger" depart="70.12" departLane="best" from="109673808#1" to="-35351451#1"/>
    <trip id="veh200" type="veh_passenger" depart="70.47" departLane="best" from="160116640#1" to="820300029"/>
    <trip id="veh201" type="veh_passenger" depart="70.82" departLane="best" from="555704732#2" to="-35347782#0"/>
    <trip id="veh202" type="veh_passenger" depart="71.18" departLane="best" from="-26250417#1" to="26249423#3"/>
    <trip id="veh203" type="veh_passenger" depart="71.53" departLane="best" from="35345928#1" to="-828882723#1"/>
    <trip id="veh204" type="veh_passenger" depart="71.88" departLane="best" from="55758837#0" to="460906567#1"/>
    <trip id="veh205" type="veh_passenger" depart="72.23" departLane="best" departSpeed="max" from="35348990#0" to="-35352287#1"/>
    <trip id="veh206" type="veh_passenger" depart="72.59" departLane="best" from="-35348250#1" to="-160542739#4"/>
    <trip id="veh207" type="veh_passenger" depart="72.94" departLane="best" from="-35352149" to="172422027"/>
    <trip id="veh208" type="veh_passenger" depart="73.29" departLane="best" from="56699080#0" to="-26249414#4"/>
    <trip id="veh209" type="veh_passenger" depart="73.64" departLane="best" from="-93678496" to="35346662#1"/>
    <trip id="veh210" type="veh_passenger" depart="74.00" departLane="best" from="-35347816#0" to="35351880#1"/>
    <trip id="veh211" type="veh_passenger" depart="74.35" departLane="best" from="170264399#2" to="-445026050#1"/>
    <trip id="veh212" type="veh_passenger" depart="74.70" departLane="best" from="35347824#1" to="-122491635#1"/>
    <trip id="veh213" type="veh_passenger" depart="75.05" departLane="best" from="460547943#1" to="506587032#11"/>
    <trip id="veh214" type="veh_passenger" depart="75.41" departLane="best" departSpeed="max" from="-27120688#2" to="157801810#1"/>
    <trip id="veh215" type="veh_passenger" depart="75.76" departLane="best" from="-35346365#1" to="93665431#1"/>
    <trip id="veh216" type="veh_passenger" depart="76.11" departLane="best" from="185918898#1" to="-180425114#6"/>
    <trip id="veh217" type="veh_passenger" depart="76.46" departLane="best" from="-35355115#1" to="56699093#3"/>
    <trip id="veh218" type="veh_passenger" depart="76.81" departLane="best" from="157796115#0" to="55729637"/>
    <trip id="veh219" type="veh_passenger" depart="77.17" departLane="best" from="35348679#0" to="945904586#0"/>
    <trip id="veh220" type="veh_passenger" depart="77.52" departLane="best" from="27792822#4" to="885301165"/>
    <trip id="veh222" type="veh_passenger" depart="78.22" departLane="best" from="37272530#20" to="26237441#5"/>
    <trip id="veh223" type="veh_passenger" depart="78.58" departLane="best" from="55758900#1" to="27121047#2"/>
    <trip id="veh224" type="veh_passenger" depart="78.93" departLane="best" from="808527168#3" to="460548089#5"/>
    <trip id="veh225" type="veh_passenger" depart="79.28" departLane="best" from="160116646#0" to="-460739481#1"/>
    <trip id="veh226" type="veh_passenger" depart="79.63" departLane="best" from="-35352287#2" to="35347223#1"/>
    <trip id="veh227" type="veh_passenger" depart="79.99" departLane="best" from="473440376#6" to="26249933#0"/>
    <trip id="veh228" type="veh_passenger" depart="80.34" departLane="best" from="35345446" to="-52732190#1"/>
    <trip id="veh229" type="veh_passenger" depart="80.69" departLane="best" from="-26249606#4" to="-55729667"/>
    <trip id="veh230" type="veh_passenger" depart="81.04" departLane="best" from="-459829762#2" to="-761580394#1"/>
    <trip id="veh231" type="veh_passenger" depart="81.40" departLane="best" from="26236439#1" to="-35345244#1"/>
    <trip id="veh232" type="veh_passenger" depart="81.75" departLane="best" from="-35351242" to="35351701"/>
    <trip id="veh233" type="veh_passenger" depart="82.10" departLane="best" from="35351812#1" to="-26227497#2"/>
    <trip id="veh234" type="veh_passenger" depart="82.45" departLane="best" from="-93670789" to="26346098#3"/>
    <trip id="veh235" type="veh_passenger" depart="82.80" departLane="best" departSpeed="max" from="-93678539" to="-35351084"/>
    <trip id="veh236" type="veh_passenger" depart="83.16" departLane="best" from="-93678631#3" to="828911233#0"/>
    <trip id="veh237" type="veh_passenger" depart="83.51" departLane="best" from="272634150#0" to="35351803#0"/>
    <trip id="veh238" type="veh_passenger" depart="83.86" departLane="best" from="5916375#8" to="48756409#0"/>
    <trip id="veh239" type="veh_passenger" depart="84.21" departLane="best" from="-837194164#3" to="-122736825"/>
    <trip id="veh240" type="veh_passenger" depart="84.57" departLane="best" from="-762735150" to="464878645#1"/>
    <trip id="veh241" type="veh_passenger" depart="84.92" departLane="best" from="56699107#0" to="906851139#0"/>
    <trip id="veh242" type="veh_passenger" depart="85.27" departLane="best" departSpeed="max" from="-93678614" to="460553836#1"/>
    <trip id="veh243" type="veh_passenger" depart="85.62" departLane="best" from="26249137#2" to="296365994#4"/>
    <trip id="veh244" type="veh_passenger" depart="85.98" departLane="best" departSpeed="max" from="-35350104" to="-35351943#0"/>
    <trip id="veh245" type="veh_passenger" depart="86.33" departLane="best" from="1029909704#0" to="-167220579#2"/>
    <trip id="veh246" type="veh_passenger" depart="86.68" departLane="best" from="-5916065#1" to="35350616"/>
    <trip id="veh247" type="veh_passenger" depart="87.03" departLane="best" from="-93665499#3" to="-35347268#1"/>
    <trip id="veh248" type="veh_passenger" depart="87.39" departLane="best" from="160069340" to="-296365994#12"/>