<?xml version="1.0" encoding="UTF-8"?>

<!-- generated on 2022-10-12 09:41:25 by Eclipse SUMO polyconvert Version 1.14.1
<configuration xmlns:xsi="http://www.w3.org/2001/XMLSchema-instance" xsi:noNamespaceSchemaLocation="http://sumo.dlr.de/xsd/polyconvertConfiguration.xsd">

    <input>
        <net-file value="RichmondHill.net.xml"/>
        <osm-files value="RichmondHill.osm"/>
        <type-file value="osmPolyConvert.typ.xml"/>
    </input>

    <output>
        <output-file value="RichmondHill.poly.xml"/>
    </output>

</configuration>
-->

<additional xmlns:xsi="http://www.w3.org/2001/XMLSchema-instance" xsi:noNamespaceSchemaLocation="http://sumo.dlr.de/xsd/additional_file.xsd">
    <location netOffset="-624425.47,-4854421.63" convBoundary="-1076.55,-5251.67,5165.08,11404.84" origBoundary="-79.464468,43.784623,-79.387349,43.935095" projParameter="+proj=utm +zone=17 +ellps=WGS84 +datum=WGS84 +units=m +no_defs"/>

    <poly id="1041811312" type="leisure" color="207,245,201" fill="1" layer="-2.00" shape="1559.185034,4902.783738 1563.013244,4891.212356 1579.115537,4896.506621 1575.287513,4908.066888 1559.185034,4902.783738"/>
    <poly id="1041811312#1" type="sport" color="79,230,125" fill="1" layer="-2.00" shape="1559.185034,4902.783738 1563.013244,4891.212356 1579.115537,4896.506621 1575.287513,4908.066888 1559.185034,4902.783738"/>
    <poly id="1041811313" type="leisure" color="207,245,201" fill="1" layer="-2.00" shape="1580.248490,4909.649867 1584.121963,4897.812698 1600.505000,4903.134565 1596.631500,4914.971726 1580.248490,4909.649867"/>
    <poly id="1041811313#1" type="sport" color="79,230,125" fill="1" layer="-2.00" shape="1580.248490,4909.649867 1584.121963,4897.812698 1600.505000,4903.134565 1596.631500,4914.971726 1580.248490,4909.649867"/>
    <poly id="1041811314" type="water" color="181,209,209" fill="0" layer="-4.00" shape="1796.633593,4767.431639 1794.255395,4750.898123 1792.750398,4726.903694 1790.683764,4708.353954 1786.522895,4690.464385 1784.359330,4677.012626 1781.788722,4655.797851 1782.161475,4641.683215 1777.863166,4598.880819 1776.927851,4574.508355 1777.473285,4558.919277"/>
    <poly id="1041811315" type="water" color="181,209,209" fill="0" layer="-4.00" shape="1777.473285,4558.919277 1781.647451,4538.054911 1782.149543,4535.742315"/>
    <poly id="1070708687" type="amenity" color="237,199,199" fill="1" layer="-1.00" shape="3250.418463,5017.509210 3259.937928,5020.247761 3258.990529,5023.540567 3249.463034,5020.801862 3250.418463,5017.509210"/>
    <poly id="1070708687#1" type="building" color="255,230,230" fill="1" layer="-1.00" shape="3250.418463,5017.509210 3259.937928,5020.247761 3258.990529,5023.540567 3249.463034,5020.801862 3250.418463,5017.509210"/>
    <poly id="1070708688" type="amenity" color="237,199,199" fill="1" layer="-1.00" shape="3216.322105,5006.387247 3225.849418,5009.137010 3224.902248,5012.418713 3215.374726,5009.680058 3216.322105,5006.387247"/>
    <poly id="1070708688#1" type="building" color="255,230,230" fill="1" layer="-1.00" shape="3216.322105,5006.387247 3225.849418,5009.137010 3224.902248,5012.418713 3215.374726,5009.680058 3216.322105,5006.387247"/>
    <poly id="1071282294" type="parking" color="184,184,179" fill="1" layer="-1.00" shape="1172.764677,4455.269028 1170.642566,4461.228655 1146.969419,4452.859055 1149.091721,4446.888314 1172.764677,4455.269028"/>
    <poly id="1071282477" type="parking" color="184,184,179" fill="1" layer="-1.00" shape="1227.647887,4450.885274 1228.921622,4445.587361 1219.695833,4443.390656 1218.430140,4448.688722 1227.647887,4450.885274"/>
    <poly id="1071282478" type="parking" color="184,184,179" fill="1" layer="-1.00" shape="1232.906425,4440.162977 1236.928359,4424.706357 1173.333438,4403.948478 1169.143439,4418.524209 1232.906425,4440.162977"/>
    <poly id="1096865043" type="building" color="255,230,230" fill="1" layer="-1.00" shape="1276.647111,5129.208914 1280.993157,5130.580040 1276.654043,5143.275182 1291.225609,5147.895365 1297.801878,5127.831762 1293.518001,5126.572909 1297.796461,5113.687746 1283.316981,5108.869303 1276.647111,5129.208914"/>
    <poly id="1096865044" type="building" color="255,230,230" fill="1" layer="-1.00" shape="1231.129153,5128.236169 1246.611388,5133.151254 1250.730591,5120.607481 1255.228240,5122.037013 1261.638905,5102.225789 1246.321279,5097.102684 1241.714993,5109.903896 1237.539530,5108.436029 1231.129153,5128.236169"/>
    <poly id="1098026760" type="building" color="255,230,230" fill="1" layer="-1.00" shape="1173.608441,4696.219981 1182.174957,4699.259688 1183.375461,4695.704759 1184.390580,4696.001728 1185.347003,4693.453254 1186.249010,4693.781416 1187.866106,4689.023304 1177.216038,4685.233095 1173.608441,4696.219981"/>
    <poly id="1098026761" type="building" color="255,230,230" fill="1" layer="-1.00" shape="1145.116918,4692.359034 1153.212308,4694.812038 1153.718739,4693.532777 1159.933809,4695.539134 1163.670409,4683.254733 1145.565985,4677.112568 1141.870795,4688.908892 1145.857710,4690.162018 1145.116918,4692.359034"/>
    <poly id="1098026762" type="building" color="255,230,230" fill="1" layer="-1.00" shape="1198.811445,4591.811940 1197.329177,4596.239280 1196.577923,4596.013965 1194.627334,4602.254597 1196.234081,4602.718310 1194.179886,4608.912539 1178.419207,4604.203466 1180.252095,4598.660576 1178.701588,4598.197931 1182.472189,4586.669708 1198.811445,4591.811940"/>
    <poly id="1098026763" type="building" color="255,230,230" fill="1" layer="-1.00" shape="1199.789888,4571.531244 1198.306566,4576.014117 1197.123544,4575.669527 1194.496568,4583.675072 1186.674438,4581.216081 1190.897206,4568.729786 1199.789888,4571.531244"/>
    <poly id="1098026764" type="building" color="255,230,230" fill="1" layer="-1.00" shape="1188.486947,4553.806997 1201.893037,4557.227148 1199.247229,4568.776640 1192.439222,4567.092355 1193.366996,4563.510046 1186.503791,4561.769169 1188.486947,4553.806997"/>
    <poly id="1098026765" type="building" color="255,230,230" fill="1" layer="-1.00" shape="1206.996474,4541.102110 1203.549244,4552.103127 1189.834997,4547.977171 1192.454835,4540.349253 1198.991214,4542.372829 1200.088142,4538.771501 1206.996474,4541.102110"/>
    <poly id="1098026766" type="building" color="255,230,230" fill="1" layer="-1.00" shape="1210.308745,4531.287384 1207.498723,4540.044987 1197.799548,4536.961608 1200.931994,4528.154547 1210.308745,4531.287384"/>
    <poly id="1098026767" type="building" color="255,230,230" fill="1" layer="-1.00" shape="1212.369069,4524.771066 1212.835510,4523.057736 1214.697912,4523.604063 1215.688719,4520.089614 1213.897998,4519.577975 1214.944578,4515.664596 1205.798129,4513.102755 1205.651874,4513.611079 1196.167544,4511.065081 1193.936766,4518.944793 1203.347724,4521.544954 1203.175474,4522.152782 1212.369069,4524.771066"/>
    <poly id="1098026768" type="building" color="255,230,230" fill="1" layer="-1.00" shape="1205.856806,4501.504319 1203.565469,4508.760685 1194.398474,4506.009590 1196.690852,4498.697688 1205.856806,4501.504319"/>
    <poly id="1098026769" type="building" color="255,230,230" fill="1" layer="-1.00" shape="1201.018672,4483.635709 1198.858101,4489.927921 1199.769010,4490.211810 1198.103708,4495.391213 1213.686874,4500.574723 1215.809385,4494.170688 1214.945633,4493.943243 1216.445212,4489.027364 1201.018672,4483.635709"/>
    <poly id="1098026770" type="building" color="255,230,230" fill="1" layer="-1.00" shape="1208.983556,4467.509252 1219.871074,4470.237365 1218.879887,4474.196234 1220.807211,4474.710459 1219.875209,4478.514897 1217.889753,4478.099569 1217.484804,4479.536295 1206.547151,4476.485027 1206.615581,4475.841903 1203.822612,4475.200198 1205.845872,4468.094311 1208.629758,4468.791397 1208.983556,4467.509252"/>
    <poly id="1098026771" type="building" color="255,230,230" fill="1" layer="-1.00" shape="1210.257461,4465.600096 1194.875969,4460.798175 1195.223670,4459.838124 1191.580224,4458.691467 1193.861477,4451.968220 1197.446583,4453.224881 1198.015584,4451.613486 1207.015656,4454.694745 1206.724195,4455.655860 1213.044138,4457.653131 1210.257461,4465.600096"/>
    <poly id="1098026772" type="building" color="255,230,230" fill="1" layer="-1.00" shape="1198.008623,4446.458001 1210.429490,4450.559496 1214.541826,4438.393334 1202.006351,4434.400772 1198.008623,4446.458001"/>
    <poly id="1098027327" type="building" color="255,230,230" fill="1" layer="-1.00" shape="1147.810166,4860.614511 1146.601303,4864.613715 1149.068541,4865.471455 1147.460646,4870.596401 1144.886864,4869.847753 1143.744326,4873.314899 1128.425032,4868.247614 1130.267059,4862.216015 1133.589970,4863.301033 1135.868108,4856.733259 1147.810166,4860.614511"/>
    <poly id="1098027328" type="building" color="255,230,230" fill="1" layer="-1.00" shape="1142.751649,4845.908303 1144.980545,4839.395155 1153.388720,4842.298509 1148.784041,4857.566381 1132.929570,4852.322306 1135.896920,4843.734311 1142.751649,4845.908303"/>
    <poly id="1098027329" type="building" color="255,230,230" fill="1" layer="-1.00" shape="1161.047960,4827.432843 1157.321617,4840.028539 1147.502774,4836.920730 1148.276110,4834.702109 1142.518283,4832.748847 1145.095018,4824.842331 1150.344961,4826.452669 1151.145344,4824.079010 1161.047960,4827.432843"/>
    <poly id="1098027622" type="building" color="255,230,230" fill="1" layer="-1.00" shape="1069.290657,4851.108102 1057.600984,4848.753926 1061.227869,4830.778737 1069.442673,4832.433933 1069.317866,4833.509309 1074.418469,4834.516789 1074.500797,4833.562827 1082.118695,4834.906769 1079.954814,4846.487633 1073.540175,4845.266431 1073.292391,4846.895017 1070.742486,4846.157960 1069.290657,4851.108102"/>
    <poly id="1098028424" type="building" color="255,230,230" fill="1" layer="-1.00" shape="1094.055614,5081.389463 1105.319747,5084.124549 1102.452153,5096.369855 1089.038039,5093.005263 1090.585243,5086.834753 1092.272846,5087.266641 1094.055614,5081.389463"/>
    <poly id="1098028425" type="building" color="255,230,230" fill="1" layer="-1.00" shape="1097.743657,5068.681906 1097.572268,5069.245311 1107.481100,5072.676971 1111.016167,5062.110889 1101.168233,5058.858146 1099.048922,5065.106723 1096.487236,5064.147217 1095.388965,5067.826310 1097.743657,5068.681906"/>
    <poly id="1098028426" type="building" color="255,230,230" fill="1" layer="-1.00" shape="1101.810317,5035.948954 1112.100365,5039.198945 1108.291616,5052.337529 1090.669008,5046.693453 1093.880654,5036.654561 1100.895033,5038.875980 1101.810317,5035.948954"/>
    <poly id="1098028427" type="building" color="255,230,230" fill="1" layer="-1.00" shape="1106.037398,5020.662804 1111.572529,5021.634090 1111.207644,5023.504896 1119.206329,5025.100525 1119.200659,5025.400406 1121.083193,5025.724880 1119.875585,5032.635110 1104.418818,5029.331864 1106.037398,5020.662804"/>
    <poly id="1098028428" type="building" color="255,230,230" fill="1" layer="-1.00" shape="1105.609995,5003.310953 1117.767878,5007.240684 1116.618024,5011.096570 1120.154840,5012.341178 1117.966084,5019.710615 1104.783018,5015.594839 1105.988893,5011.751122 1103.096741,5010.840919 1105.609995,5003.310953"/>
    <poly id="1098028429" type="building" color="255,230,230" fill="1" layer="-1.00" shape="1117.690726,4965.840834 1117.513874,4966.693012 1114.345604,4965.933134 1113.206415,4972.200239 1116.366647,4972.959965 1115.523241,4977.610503 1126.434150,4979.483416 1128.641877,4968.136717 1117.690726,4965.840834"/>
    <poly id="1098028430" type="building" color="255,230,230" fill="1" layer="-1.00" shape="1130.123750,4949.698789 1129.154623,4955.046922 1131.198279,4955.352223 1129.949745,4961.450598 1119.164359,4959.313397 1121.257501,4948.075636 1130.123750,4949.698789"/>
    <poly id="1098028431" type="building" color="255,230,230" fill="1" layer="-1.00" shape="1131.822916,4930.820544 1128.077977,4941.004885 1119.354435,4937.784496 1122.933638,4927.863673 1131.822916,4930.820544"/>
    <poly id="1098028432" type="building" color="255,230,230" fill="1" layer="-1.00" shape="1140.694805,4914.722283 1136.797880,4926.992553 1116.241699,4920.059662 1120.508370,4907.785262 1140.694805,4914.722283"/>
    <poly id="1098028433" type="building" color="255,230,230" fill="1" layer="-1.00" shape="1131.354934,4891.391006 1143.163342,4895.536381 1140.304280,4904.348634 1125.998466,4899.667170 1127.548000,4894.652222 1130.018379,4895.343355 1131.354934,4891.391006"/>
    <poly id="1098042670" type="building" color="255,230,230" fill="1" layer="-1.00" shape="884.146063,4844.833750 886.571791,4835.968779 876.276365,4833.407915 874.056397,4842.443432 884.146063,4844.833750"/>
    <poly id="1098042671" type="building" color="255,230,230" fill="1" layer="-1.00" shape="902.410881,4902.076180 903.317990,4898.726771 904.996360,4899.225099 906.894556,4892.761191 898.217449,4890.053066 894.985506,4899.902776 902.410881,4902.076180"/>
    <poly id="1098042672" type="building" color="255,230,230" fill="1" layer="-1.00" shape="863.907042,4889.216676 871.617895,4891.595423 874.716789,4881.554311 867.563707,4879.430520 867.244646,4880.580008 866.365915,4880.296771 863.907042,4889.216676"/>
    <poly id="1098042673" type="building" color="255,230,230" fill="1" layer="-1.00" shape="869.832562,4872.062523 871.877162,4863.801441 876.165263,4864.848989 876.455193,4863.965608 881.120901,4865.020284 880.996125,4866.095664 884.313132,4867.069337 882.327272,4875.198196 869.832562,4872.062523"/>
    <poly id="1098042674" type="building" color="255,230,230" fill="1" layer="-1.00" shape="896.845659,4808.586019 903.439555,4810.532624 902.976355,4812.079374 907.293059,4813.316362 904.599995,4823.142908 902.023027,4822.560956 900.801940,4827.215497 891.310978,4824.614240 892.695679,4819.807236 889.458572,4818.857289 892.363021,4808.901399 896.546290,4809.969202 896.845659,4808.586019"/>
    <poly id="1098042675" type="building" color="255,230,230" fill="1" layer="-1.00" shape="910.554809,4817.644424 914.927261,4818.482486 914.893095,4819.015152 917.302183,4819.549498 914.787454,4831.423769 907.943539,4829.950191 910.554809,4817.644424"/>
    <poly id="1098042676" type="building" color="255,230,230" fill="1" layer="-1.00" shape="933.450123,4822.032034 932.891919,4821.799282 933.404799,4820.175698 924.327989,4817.348889 923.808125,4818.916789 923.327537,4818.829942 920.582833,4827.133347 921.229205,4827.378873 918.844236,4834.933544 926.620459,4837.258034 929.152425,4830.006128 930.654896,4830.456699 933.450123,4822.032034"/>
    <poly id="1098042677" type="building" color="255,230,230" fill="1" layer="-1.00" shape="943.065665,4822.291353 951.476666,4825.050063 949.412693,4831.777486 948.877334,4831.611828 947.728813,4835.401100 940.704248,4833.279658 941.887000,4829.379924 941.000231,4829.096526 943.065665,4822.291353"/>
    <poly id="1098042678" type="building" color="255,230,230" fill="1" layer="-1.00" shape="956.415154,4830.387549 959.548430,4831.302237 960.035745,4829.755946 962.743207,4830.662594 962.335185,4832.265936 965.308614,4833.133165 963.072827,4840.446205 965.885778,4841.299294 963.501181,4848.831737 949.441471,4844.299749 951.464142,4838.482621 953.475558,4839.220573 956.415154,4830.387549"/>
    <poly id="1098042679" type="building" color="255,230,230" fill="1" layer="-1.00" shape="980.187120,4847.080275 982.912405,4838.532091 982.535635,4838.480532 983.337633,4836.018000 974.925189,4833.336997 974.075198,4835.787512 973.858902,4835.750095 971.135516,4844.198323 980.187120,4847.080275"/>
    <poly id="1098042680" type="building" color="255,230,230" fill="1" layer="-1.00" shape="983.482181,4852.620068 992.533348,4855.524251 994.838621,4847.512560 995.373348,4847.711542 997.611538,4840.698545 988.613802,4837.517598 986.434230,4844.831693 985.945610,4844.744690 983.482181,4852.620068"/>
    <poly id="1098042681" type="building" color="255,230,230" fill="1" layer="-1.00" shape="981.688534,4813.543305 989.235398,4816.096861 992.328206,4806.389001 984.665915,4803.988812 981.688534,4813.543305"/>
    <poly id="1098042682" type="building" color="255,230,230" fill="1" layer="-1.00" shape="964.440910,4808.006673 973.117472,4810.748203 976.154229,4801.028168 967.097945,4798.390570 964.440910,4808.006673"/>
    <poly id="1098042683" type="building" color="255,230,230" fill="1" layer="-1.00" shape="906.920018,4697.247353 919.378790,4699.749097 922.711010,4682.890462 910.261079,4680.344438 906.920018,4697.247353"/>
    <poly id="1098042684" type="building" color="255,230,230" fill="1" layer="-1.00" shape="913.394707,4636.960907 920.067020,4639.020108 919.292484,4641.305394 919.619382,4641.444892 917.097004,4649.463618 915.220225,4648.828217 912.280618,4657.661258 906.900193,4655.715333 913.394707,4636.960907"/>
    <poly id="1098042685" type="building" color="255,230,230" fill="1" layer="-1.00" shape="938.039366,4650.470048 935.683539,4656.903087 927.572735,4653.983414 929.842549,4647.848736 938.039366,4650.470048"/>
    <poly id="1098042686" type="building" color="255,230,230" fill="1" layer="-1.00" shape="942.489556,4650.176303 945.996347,4651.320246 946.899287,4650.748429 948.913278,4651.353098 949.273283,4652.293191 952.857480,4653.594148 951.020602,4659.359231 952.043351,4659.678530 952.689030,4660.812898 952.004122,4663.033209 950.837095,4663.544486 949.845226,4663.292435 949.442862,4664.595896 938.807720,4661.284116 942.489556,4650.176303"/>
    <poly id="1098042687" type="building" color="255,230,230" fill="1" layer="-1.00" shape="963.680373,4655.476220 969.547256,4657.198054 968.928925,4659.297403 969.679549,4659.556013 966.933184,4668.792665 959.293568,4666.459605 962.154294,4657.125113 962.904290,4657.417042 963.680373,4655.476220"/>
    <poly id="1098046798" type="building" color="255,230,230" fill="1" layer="-1.00" shape="731.034497,4884.755293 733.811261,4871.752618 727.161222,4870.227327 726.806489,4871.565030 723.907112,4871.032623 721.430953,4882.585472 731.034497,4884.755293"/>
    <poly id="1098046799" type="building" color="255,230,230" fill="1" layer="-1.00" shape="733.381341,4886.032813 743.047187,4887.881617 745.371780,4876.270364 742.147192,4875.509605 742.277886,4874.545442 735.996378,4873.082643 733.381341,4886.032813"/>
    <poly id="1098046800" type="building" color="255,230,230" fill="1" layer="-1.00" shape="763.750635,4892.993964 767.876157,4880.072284 758.048133,4877.020436 754.057744,4890.022443 763.750635,4892.993964"/>
    <poly id="1098046801" type="building" color="255,230,230" fill="1" layer="-1.00" shape="758.083911,4910.930826 759.912528,4905.165541 761.199954,4905.512023 763.209439,4899.105731 753.570835,4895.813025 749.614198,4908.304581 758.083911,4910.930826"/>
    <poly id="1098046802" type="building" color="255,230,230" fill="1" layer="-1.00" shape="760.290689,4922.194194 748.610532,4918.485240 751.132279,4910.910873 762.543476,4914.392546 760.290689,4922.194194"/>
    <poly id="1098046803" type="building" color="255,230,230" fill="1" layer="-1.00" shape="758.166208,4932.142618 748.044556,4928.896364 750.555334,4921.477338 760.520293,4924.509539 758.166208,4932.142618"/>
    <poly id="1098046804" type="building" color="255,230,230" fill="1" layer="-1.00" shape="756.812687,4943.827729 758.997080,4936.669209 750.207083,4933.981370 748.243808,4940.921848 756.812687,4943.827729"/>
    <poly id="1098046805" type="building" color="255,230,230" fill="1" layer="-1.00" shape="754.079800,4945.976114 752.232065,4952.329905 753.086688,4952.612673 751.591387,4957.750937 749.235568,4956.950998 747.117690,4963.566353 738.656076,4960.940272 739.848685,4957.362902 732.139334,4954.906560 736.827335,4940.706630 754.079800,4945.976114"/>
    <poly id="1098046806" type="building" color="255,230,230" fill="1" layer="-1.00" shape="735.389860,4990.955242 745.642114,4993.237316 747.642855,4984.308736 746.296274,4984.116690 747.757182,4978.244473 746.204645,4977.892995 747.202609,4973.556433 739.735085,4971.915718 735.389860,4990.955242"/>
    <poly id="1098046807" type="building" color="255,230,230" fill="1" layer="-1.00" shape="712.730222,4966.840218 725.446758,4969.713126 726.088803,4967.203110 729.897951,4968.074877 727.513558,4977.318439 723.489589,4976.331517 722.902738,4978.898127 717.907694,4977.837351 717.027251,4981.909477 709.893313,4980.052870 712.730222,4966.840218"/>
    <poly id="1098046808" type="building" color="255,230,230" fill="1" layer="-1.00" shape="696.705260,4959.127407 709.481195,4961.834743 706.642646,4976.413976 701.085632,4975.320401 701.534720,4973.240061 699.491683,4972.901572 699.192152,4974.295869 692.108790,4972.740222 692.885822,4968.610592 694.607916,4968.920810 696.705260,4959.127407"/>
    <poly id="1098046809" type="building" color="255,230,230" fill="1" layer="-1.00" shape="679.305042,4961.699407 689.431696,4964.678996 687.498036,4971.331171 677.394448,4968.407572 679.305042,4961.699407"/>
    <poly id="1098046810" type="building" color="255,230,230" fill="1" layer="-1.00" shape="694.258990,4943.081971 686.204094,4941.474692 688.571755,4930.130890 696.570426,4931.737111 694.258990,4943.081971"/>
    <poly id="1098046811" type="building" color="255,230,230" fill="1" layer="-1.00" shape="692.057816,4909.764094 693.550121,4909.047801 713.966637,4915.310095 710.011132,4927.746140 689.925516,4921.412318 691.710471,4915.401759 691.198379,4915.281003 691.995656,4913.062786 691.369168,4911.762145 692.057816,4909.764094"/>
    <poly id="1098046812" type="building" color="255,230,230" fill="1" layer="-1.00" shape="694.756935,4893.626739 699.535124,4894.683407 699.296016,4895.856630 712.129149,4898.520602 709.628867,4910.928520 695.753619,4908.122697 696.461234,4904.691730 692.705354,4903.976537 694.756935,4893.626739"/>
    <poly id="1098046813" type="building" color="255,230,230" fill="1" layer="-1.00" shape="697.765970,4877.250790 704.956390,4878.675129 704.834782,4879.583911 711.806183,4881.115236 709.185334,4894.376402 695.769045,4891.523677 696.595000,4887.783842 695.976997,4887.738864 697.765970,4877.250790"/>
    <poly id="1098046814" type="building" color="255,230,230" fill="1" layer="-1.00" shape="702.894551,4865.259050 710.600877,4867.881956 709.923813,4869.691343 716.186200,4871.742621 716.006258,4872.761410 719.919777,4874.068452 717.634106,4881.058415 699.904335,4875.091178 702.894551,4865.259050"/>
    <poly id="1098046815" type="building" color="255,230,230" fill="1" layer="-1.00" shape="777.686867,4994.430375 776.676018,4997.744511 777.834462,4998.110786 776.251822,5003.191844 775.156394,5002.893422 774.181663,5005.997136 790.194176,5011.376669 794.023700,4999.660483 777.686867,4994.430375"/>
    <poly id="1098046816" type="building" color="255,230,230" fill="1" layer="-1.00" shape="780.704083,4981.465582 779.563220,4984.855040 780.954025,4985.259029 779.326946,4990.139257 778.153061,4989.739358 777.059357,4993.185259 793.192964,4998.111545 796.913449,4986.637738 780.704083,4981.465582"/>
    <poly id="1098046817" type="building" color="255,230,230" fill="1" layer="-1.00" shape="783.466867,4967.929348 799.584329,4973.288657 795.832609,4985.139636 779.575453,4979.944360 780.741048,4976.522036 781.731199,4976.862917 783.419129,4971.739403 782.348008,4971.430327 783.466867,4967.929348"/>
    <poly id="1098046818" type="building" color="255,230,230" fill="1" layer="-1.00" shape="786.164206,4954.880749 802.258853,4960.172970 798.674716,4971.660456 782.384973,4966.486781 783.556930,4963.153463 784.922171,4963.634746 786.494068,4958.697925 785.128407,4958.238856 786.164206,4954.880749"/>
    <poly id="1098046819" type="building" color="255,230,230" fill="1" layer="-1.00" shape="786.181679,4949.692402 787.411181,4950.126683 786.551219,4953.110343 800.958144,4957.548544 803.475466,4949.785230 787.754418,4944.711155 786.181679,4949.692402"/>
    <poly id="1098046820" type="building" color="255,230,230" fill="1" layer="-1.00" shape="790.280825,4938.170180 791.274857,4935.322376 805.467066,4940.067635 803.029451,4947.865784 787.602099,4942.986131 789.096803,4937.881195 790.280825,4938.170180"/>
    <poly id="1098046821" type="building" color="255,230,230" fill="1" layer="-1.00" shape="808.492595,4895.559852 818.148355,4897.941888 814.578932,4912.907281 807.543312,4911.374634 809.364198,4903.464858 806.627619,4902.824378 808.492595,4895.559852"/>
    <poly id="1098115425" type="building" color="255,230,230" fill="1" layer="-1.00" shape="1288.009374,5391.592023 1297.057994,5394.585494 1293.748894,5404.244690 1284.651032,5401.305843 1288.009374,5391.592023"/>
    <poly id="1098115426" type="building" color="255,230,230" fill="1" layer="-1.00" shape="1274.432620,5382.846370 1287.042785,5387.040554 1282.340057,5400.695438 1274.174543,5398.174246 1275.594802,5394.045737 1271.072822,5392.637944 1274.432620,5382.846370"/>
    <poly id="1098115427" type="building" color="255,230,230" fill="1" layer="-1.00" shape="1260.458179,5386.614972 1257.349936,5385.667271 1259.263260,5380.114814 1262.473839,5381.175560 1263.041529,5379.630810 1272.872421,5382.905715 1268.206776,5397.150176 1261.488181,5395.034159 1263.522555,5388.606249 1260.199929,5387.521160 1260.458179,5386.614972"/>
    <poly id="1098115428" type="building" color="255,230,230" fill="1" layer="-1.00" shape="1230.338224,5370.867596 1233.662334,5371.874923 1233.854675,5371.478579 1243.360419,5374.525070 1238.953966,5388.241143 1232.393293,5386.272584 1234.303607,5380.453407 1231.356450,5379.486546 1231.535457,5378.945510 1227.973286,5377.778129 1230.338224,5370.867596"/>
    <poly id="1098115429" type="building" color="255,230,230" fill="1" layer="-1.00" shape="1211.454718,5379.243210 1218.362155,5381.573852 1220.188549,5375.941964 1226.482025,5378.016560 1229.143439,5369.878352 1215.997690,5365.529705 1211.454718,5379.243210"/>
    <poly id="1098115430" type="building" color="255,230,230" fill="1" layer="-1.00" shape="1200.530657,5367.059158 1209.525634,5369.918163 1206.839723,5378.078136 1198.006269,5375.177748 1200.530657,5367.059158"/>
    <poly id="1098115431" type="building" color="255,230,230" fill="1" layer="-1.00" shape="1199.828643,5358.290648 1201.780107,5351.994481 1190.432415,5348.179893 1188.147427,5355.114173 1189.433695,5355.516274 1186.970758,5362.936057 1191.258328,5364.417130 1189.142212,5370.921287 1195.839693,5372.881280 1200.473271,5358.625056 1199.828643,5358.290648"/>
    <poly id="1098115432" type="building" color="255,230,230" fill="1" layer="-1.00" shape="1167.716859,5363.705073 1170.480309,5364.612876 1170.249744,5365.330709 1180.606923,5368.826534 1183.700693,5359.496535 1173.417904,5355.891006 1173.105531,5356.685066 1170.431079,5355.745614 1167.716859,5363.705073"/>
    <poly id="1098115433" type="building" color="255,230,230" fill="1" layer="-1.00" shape="1155.178285,5354.446000 1161.812623,5356.771416 1159.981864,5362.636559 1166.677470,5364.696482 1171.081683,5351.091432 1157.640299,5346.648426 1155.178285,5354.446000"/>
    <poly id="1098115434" type="building" color="255,230,230" fill="1" layer="-1.00" shape="1142.588998,5347.441462 1151.804133,5350.560098 1149.453707,5357.982021 1140.350213,5354.909943 1142.588998,5347.441462"/>
    <poly id="1098115435" type="building" color="255,230,230" fill="1" layer="-1.00" shape="1128.555042,5343.309518 1137.285178,5346.152304 1134.818306,5353.783132 1125.713750,5350.766608 1128.555042,5343.309518"/>
    <poly id="1098115436" type="building" color="255,230,230" fill="1" layer="-1.00" shape="1111.534398,5345.398663 1114.270346,5337.561812 1122.733285,5340.510633 1120.266428,5348.141466 1111.534398,5345.398663"/>
    <poly id="1098115437" type="building" color="255,230,230" fill="1" layer="-1.00" shape="1099.371870,5333.246922 1108.314739,5336.315905 1105.919254,5343.148124 1105.223478,5342.968307 1104.479820,5345.320822 1097.626654,5343.091323 1098.478737,5340.529755 1097.195402,5339.972178 1099.371870,5333.246922"/>
    <poly id="1098115438" type="building" color="255,230,230" fill="1" layer="-1.00" shape="1085.034938,5327.709397 1093.979710,5330.678400 1091.401307,5338.684897 1082.510680,5335.828028 1085.034938,5327.709397"/>
    <poly id="1098115439" type="building" color="255,230,230" fill="1" layer="-1.00" shape="1078.120388,5320.223406 1076.182053,5325.830990 1079.391425,5326.958287 1076.981690,5334.545772 1068.252775,5331.636425 1070.599967,5324.381076 1069.154063,5323.920427 1070.940747,5317.832215 1078.120388,5320.223406"/>
    <poly id="1098115440" type="building" color="255,230,230" fill="1" layer="-1.00" shape="1037.145009,5312.415861 1035.989771,5319.538196 1042.799129,5321.111271 1041.674322,5326.623133 1049.408381,5328.169248 1052.016778,5315.596813 1050.481031,5315.212245 1037.145009,5312.415861"/>
    <poly id="1098115441" type="building" color="255,230,230" fill="1" layer="-1.00" shape="1307.327801,5367.469890 1305.380236,5373.555000 1294.199406,5369.421181 1296.149906,5363.180574 1307.327801,5367.469890"/>
    <poly id="1098115442" type="building" color="255,230,230" fill="1" layer="-1.00" shape="1299.115100,5351.737155 1312.655569,5356.460096 1317.337441,5342.638176 1309.037398,5340.003289 1307.780265,5343.579346 1306.335222,5343.074219 1307.312058,5339.870616 1303.241403,5338.393576 1299.115100,5351.737155"/>
    <poly id="1098115443" type="building" color="255,230,230" fill="1" layer="-1.00" shape="1284.740969,5342.231967 1297.169168,5346.278283 1299.910385,5338.174943 1287.426989,5334.072024 1284.740969,5342.231967"/>
    <poly id="1098115444" type="building" color="255,230,230" fill="1" layer="-1.00" shape="1271.633163,5328.662052 1284.538156,5332.995138 1281.691467,5341.152040 1269.163859,5336.837215 1271.633163,5328.662052"/>
    <poly id="1098115445" type="building" color="255,230,230" fill="1" layer="-1.00" shape="1255.599434,5321.914294 1260.359952,5323.459918 1259.961974,5324.530121 1269.495284,5327.821605 1266.242432,5337.481877 1252.156447,5332.704264 1255.599434,5321.914294"/>