<?xml version="1.0" encoding="UTF-8"?>

<!-- generated on 2022-10-11 14:47:00 by Eclipse SUMO netconvert Version 1.14.1
<configuration xmlns:xsi="http://www.w3.org/2001/XMLSchema-instance" xsi:noNamespaceSchemaLocation="http://sumo.dlr.de/xsd/netconvertConfiguration.xsd">

    <input>
        <type-files value="C:\Program%20Files%20(x86)\Eclipse\Sumo\data\typemap\osmNetconvert.typ.xml"/>
        <osm-files value="osm_bbox.osm.xml.gz"/>
    </input>

    <output>
        <output-file value="osm.net.xml"/>
        <output.street-names value="true"/>
        <output.original-names value="true"/>
    </output>

    <projection>
        <proj.utm value="true"/>
    </projection>

    <processing>
        <geometry.remove value="true"/>
        <roundabouts.guess value="true"/>
    </processing>

    <tls_building>
        <tls.discard-simple value="true"/>
        <tls.join value="true"/>
        <tls.guess-signals value="true"/>
        <tls.default-type value="actuated"/>
    </tls_building>

    <ramp_guessing>
        <ramps.guess value="true"/>
    </ramp_guessing>

    <junctions>
        <junctions.join value="true"/>
        <junctions.corner-detail value="5"/>
    </junctions>

    <report>
        <verbose value="true"/>
    </report>

</configuration>
-->

<net version="1.9" junctionCornerDetail="5" limitTurnSpeed="5.50" xmlns:xsi="http://www.w3.org/2001/XMLSchema-instance" xsi:noNamespaceSchemaLocation="http://sumo.dlr.de/xsd/net_file.xsd">

    <location netOffset="-393785.26,-5823985.45" convBoundary="0.00,0.00,2978.88,2037.59" origBoundary="13.433218,52.555645,13.485553,52.574363" projParameter="+proj=utm +zone=33 +ellps=WGS84 +datum=WGS84 +units=m +no_defs"/>

    <type id="highway.bridleway" priority="1" numLanes="1" speed="2.78" allow="pedestrian" oneway="1" width="2.00"/>
    <type id="highway.bus_guideway" priority="1" numLanes="1" speed="27.78" allow="bus" oneway="1"/>
    <type id="highway.cycleway" priority="1" numLanes="1" speed="5.56" allow="bicycle" oneway="0" width="1.00"/>
    <type id="highway.footway" priority="1" numLanes="1" speed="2.78" allow="pedestrian" oneway="1" width="2.00"/>
    <type id="highway.ford" priority="1" numLanes="1" speed="2.78" allow="army" oneway="0"/>
    <type id="highway.living_street" priority="2" numLanes="1" speed="2.78" disallow="tram rail_urban rail rail_electric rail_fast ship" oneway="0"/>
    <type id="highway.motorway" priority="14" numLanes="2" speed="39.44" allow="private emergency authority army vip passenger hov taxi bus coach delivery truck trailer motorcycle evehicle custom1 custom2" oneway="1"/>
    <type id="highway.motorway_link" priority="9" numLanes="1" speed="22.22" allow="private emergency authority army vip passenger hov taxi bus coach delivery truck trailer motorcycle evehicle custom1 custom2" oneway="1"/>
    <type id="highway.path" priority="1" numLanes="1" speed="5.56" allow="pedestrian bicycle" oneway="0" width="2.00"/>
    <type id="highway.pedestrian" priority="1" numLanes="1" speed="2.78" allow="pedestrian" oneway="1" width="2.00"/>
    <type id="highway.primary" priority="12" numLanes="2" speed="27.78" disallow="tram rail_urban rail rail_electric rail_fast ship" oneway="0"/>
    <type id="highway.primary_link" priority="7" numLanes="1" speed="22.22" disallow="tram rail_urban rail rail_electric rail_fast ship" oneway="0"/>
    <type id="highway.raceway" priority="15" numLanes="2" speed="83.33" allow="vip" oneway="0"/>
    <type id="highway.residential" priority="3" numLanes="1" speed="13.89" disallow="tram rail_urban rail rail_electric rail_fast ship" oneway="0"/>
    <type id="highway.secondary" priority="11" numLanes="1" speed="27.78" disallow="tram rail_urban rail rail_electric rail_fast ship" oneway="0"/>
    <type id="highway.secondary_link" priority="6" numLanes="1" speed="22.22" disallow="tram rail_urban rail rail_electric rail_fast ship" oneway="0"/>
    <type id="highway.service" priority="1" numLanes="1" speed="5.56" allow="pedestrian delivery bicycle" oneway="0"/>
    <type id="highway.stairs" priority="1" numLanes="1" speed="1.39" allow="pedestrian" oneway="1" width="2.00"/>
    <type id="highway.step" priority="1" numLanes="1" speed="1.39" allow="pedestrian" oneway="1" width="2.00"/>
    <type id="highway.steps" priority="1" numLanes="1" speed="1.39" allow="pedestrian" oneway="1" width="2.00"/>
    <type id="highway.tertiary" priority="10" numLanes="1" speed="22.22" disallow="tram rail_urban rail rail_electric rail_fast ship" oneway="0"/>
    <type id="highway.tertiary_link" priority="5" numLanes="1" speed="22.22" disallow="tram rail_urban rail rail_electric rail_fast ship" oneway="0"/>
    <type id="highway.track" priority="1" numLanes="1" speed="5.56" allow="pedestrian motorcycle moped bicycle" oneway="0"/>
    <type id="highway.trunk" priority="13" numLanes="2" speed="27.78" disallow="pedestrian bicycle tram rail_urban rail rail_electric rail_fast ship" oneway="0"/>
    <type id="highway.trunk_link" priority="8" numLanes="1" speed="22.22" disallow="pedestrian bicycle tram rail_urban rail rail_electric rail_fast ship" oneway="0"/>
    <type id="highway.unclassified" priority="4" numLanes="1" speed="13.89" disallow="tram rail_urban rail rail_electric rail_fast ship" oneway="0"/>
    <type id="highway.unsurfaced" priority="1" numLanes="1" speed="8.33" disallow="tram rail_urban rail rail_electric rail_fast ship" oneway="0"/>
    <type id="railway.highspeed" priority="21" numLanes="1" speed="69.44" allow="rail_fast" oneway="1"/>
    <type id="railway.light_rail" priority="19" numLanes="1" speed="27.78" allow="rail_urban" oneway="1"/>
    <type id="railway.preserved" priority="16" numLanes="1" speed="27.78" allow="rail" oneway="1"/>
    <type id="railway.rail" priority="20" numLanes="1" speed="44.44" allow="rail" oneway="1"/>
    <type id="railway.subway" priority="18" numLanes="1" speed="27.78" allow="rail_urban" oneway="1"/>
    <type id="railway.tram" priority="17" numLanes="1" speed="13.89" allow="tram" oneway="1"/>

    <edge id=":101213423_0" function="internal">
        <lane id=":101213423_0_0" index="0" disallow="tram rail_urban rail rail_electric rail_fast ship" speed="3.65" length="4.67" shape="0.29,262.27 -1.03,261.70 -1.57,260.99 -1.33,260.13 -0.29,259.12"/>
    </edge>
    <edge id=":101213425_0" function="internal">
        <lane id=":101213425_0_0" index="0" disallow="tram rail_urban rail rail_electric rail_fast ship" speed="3.65" length="4.67" shape="146.72,812.58 145.28,812.46 144.54,811.95 144.51,811.06 145.17,809.78"/>
    </edge>
    <edge id=":114093304_0" function="internal">
        <lane id=":114093304_0_0" index="0" allow="pedestrian delivery bicycle" speed="5.56" length="6.12" shape="2157.74,1241.48 2153.88,1236.73"/>
    </edge>
    <edge id=":114093304_1" function="internal">
        <lane id=":114093304_1_0" index="0" allow="pedestrian delivery bicycle" speed="5.32" length="5.11" shape="2153.36,1241.31 2154.25,1240.17 2154.63,1239.03 2154.51,1237.88 2153.88,1236.73"/>
    </edge>
    <edge id=":1439373266_0" function="internal">
        <lane id=":1439373266_0_0" index="0" disallow="tram rail_urban rail rail_electric rail_fast ship" speed="3.65" length="4.67" shape="1400.61,1463.17 1402.02,1462.87 1402.87,1463.14 1403.16,1463.98 1402.90,1465.40"/>
    </edge>
    <edge id=":1480216577_0" function="internal">
        <lane id=":1480216577_0_0" index="0" allow="pedestrian delivery bicycle" speed="3.65" length="4.67" shape="1309.43,721.38 1309.41,719.93 1309.84,719.15 1310.72,719.02 1312.06,719.56"/>
    </edge>
    <edge id=":1480216583_0" function="internal">
        <lane id=":1480216583_0_0" index="0" allow="pedestrian delivery bicycle" speed="3.65" length="4.67" shape="1296.03,734.63 1295.98,733.19 1296.39,732.40 1297.28,732.25 1298.63,732.76"/>
    </edge>
    <edge id=":1480216591_0" function="internal">
        <lane id=":1480216591_0_0" index="0" allow="pedestrian delivery bicycle" speed="3.65" length="4.67" shape="1288.26,736.13 1289.68,735.87 1290.52,736.17 1290.79,737.03 1290.48,738.43"/>
    </edge>
    <edge id=":1480216594_0" function="internal">
        <lane id=":1480216594_0_0" index="0" allow="pedestrian delivery bicycle" speed="5.56" length="9.40" shape="1328.92,738.49 1321.18,743.82"/>
    </edge>
    <edge id=":1480216594_1" function="internal">
        <lane id=":1480216594_1_0" index="0" allow="pedestrian delivery bicycle" speed="5.56" length="10.16" shape="1328.92,738.49 1326.43,739.72 1324.14,739.87 1322.05,738.91 1320.16,736.87"/>
    </edge>
    <edge id=":1480216594_2" function="internal">
        <lane id=":1480216594_2_0" index="0" allow="pedestrian delivery bicycle" speed="3.65" length="4.67" shape="1328.92,738.49 1327.48,738.51 1326.70,738.08 1326.57,737.19 1327.11,735.85"/>
    </edge>
    <edge id=":1480216594_3" function="internal">
        <lane id=":1480216594_3_0" index="0" allow="pedestrian delivery bicycle" speed="5.05" length="5.01" shape="1322.79,735.05 1323.72,736.06 1324.75,736.53 1325.88,736.46 1327.11,735.85"/>
    </edge>
    <edge id=":1480216594_4" function="internal">
        <lane id=":1480216594_4_0" index="0" allow="pedestrian delivery bicycle" speed="5.56" length="10.17" shape="1322.79,735.05 1324.03,737.54 1324.18,739.84 1323.23,741.93 1321.18,743.82"/>
    </edge>
    <edge id=":1480216594_5" function="internal">
        <lane id=":1480216594_5_0" index="0" allow="pedestrian delivery bicycle" speed="3.65" length="4.67" shape="1322.79,735.05 1322.81,736.49 1322.38,737.27 1321.50,737.40 1320.16,736.87"/>
    </edge>
    <edge id=":1480216594_6" function="internal">
        <lane id=":1480216594_6_0" index="0" allow="pedestrian delivery bicycle" speed="5.04" length="5.00" shape="1319.37,741.18 1320.37,740.25 1320.84,739.22 1320.77,738.10 1320.16,736.87"/>
    </edge>
    <edge id=":1480216594_7" function="internal">
        <lane id=":1480216594_7_0" index="0" allow="pedestrian delivery bicycle" speed="5.56" length="9.40" shape="1319.37,741.18 1327.11,735.85"/>
    </edge>
    <edge id=":1480216594_8" function="internal">
        <lane id=":1480216594_8_0" index="0" allow="pedestrian delivery bicycle" speed="3.65" length="4.67" shape="1319.37,741.18 1320.81,741.16 1321.59,741.59 1321.72,742.48 1321.18,743.82"/>
    </edge>
    <edge id=":1480216611_0" function="internal">
        <lane id=":1480216611_0_0" index="0" allow="pedestrian delivery bicycle" speed="5.56" length="9.40" shape="1313.88,748.85 1306.13,754.19"/>
    </edge>
    <edge id=":1480216611_1" function="internal">
        <lane id=":1480216611_1_0" index="0" allow="pedestrian delivery bicycle" speed="5.56" length="10.17" shape="1313.88,748.85 1311.41,750.07 1309.12,750.21 1307.01,749.26 1305.07,747.23"/>
    </edge>
    <edge id=":1480216611_2" function="internal">
        <lane id=":1480216611_2_0" index="0" allow="pedestrian delivery bicycle" speed="3.65" length="4.67" shape="1313.88,748.85 1312.43,748.87 1311.65,748.44 1311.53,747.56 1312.06,746.22"/>
    </edge>
    <edge id=":1480216611_3" function="internal">
        <lane id=":1480216611_3_0" index="0" allow="pedestrian delivery bicycle" speed="5.10" length="5.08" shape="1307.67,745.36 1308.64,746.39 1309.70,746.87 1310.84,746.82 1312.06,746.22"/>
    </edge>
    <edge id=":1480216611_4" function="internal">
        <lane id=":1480216611_4_0" index="0" allow="pedestrian delivery bicycle" speed="5.56" length="10.26" shape="1307.67,745.36 1308.97,747.86 1309.15,750.17 1308.20,752.27 1306.13,754.19"/>
    </edge>
    <edge id=":1480216611_5" function="internal">
        <lane id=":1480216611_5_0" index="0" allow="pedestrian delivery bicycle" speed="3.65" length="4.67" shape="1307.67,745.36 1307.72,746.81 1307.30,747.60 1306.42,747.74 1305.07,747.23"/>
    </edge>
    <edge id=":1480216611_6" function="internal">
        <lane id=":1480216611_6_0" index="0" allow="pedestrian delivery bicycle" speed="5.02" length="5.02" shape="1304.32,751.55 1305.33,750.61 1305.80,749.58 1305.71,748.45 1305.07,747.23"/>
    </edge>
    <edge id=":1480216611_7" function="internal">
        <lane id=":1480216611_7_0" index="0" allow="pedestrian delivery bicycle" speed="5.56" length="9.40" shape="1304.32,751.55 1312.06,746.22"/>
    </edge>
    <edge id=":1480216611_8" function="internal">
        <lane id=":1480216611_8_0" index="0" allow="pedestrian delivery bicycle" speed="3.65" length="4.67" shape="1304.32,751.55 1305.76,751.53 1306.54,751.96 1306.67,752.85 1306.13,754.19"/>
    </edge>
    <edge id=":1480216615_0" function="internal">
        <lane id=":1480216615_0_0" index="0" allow="pedestrian delivery bicycle" speed="5.56" length="15.06" shape="1277.90,777.41 1276.70,774.82 1276.19,771.51 1276.36,767.48 1277.22,762.73"/>
    </edge>
    <edge id=":1480216615_1" function="internal">
        <lane id=":1480216615_1_0" index="0" allow="pedestrian delivery bicycle" speed="5.56" length="14.51" shape="1277.90,777.41 1276.92,774.74 1277.55,771.90 1279.81,768.91 1283.69,765.76"/>
    </edge>
    <edge id=":1480216615_2" function="internal">
        <lane id=":1480216615_2_0" index="0" allow="pedestrian delivery bicycle" speed="3.65" length="4.67" shape="1277.90,777.41 1277.88,775.97 1278.31,775.19 1279.19,775.06 1280.53,775.59"/>
    </edge>
    <edge id=":1480216615_3" function="internal">
        <lane id=":1480216615_3_0" index="0" allow="pedestrian delivery bicycle" speed="5.56" length="9.48" shape="1285.51,768.39 1282.67,770.58 1280.89,772.52 1280.18,774.18 1280.53,775.59"/>
    </edge>
    <edge id=":1480216615_4" function="internal">
        <lane id=":1480216615_4_0" index="0" allow="pedestrian delivery bicycle" speed="5.56" length="16.95" shape="1285.51,768.39 1280.69,771.00 1277.70,770.93 1276.54,768.17 1277.22,762.73"/>
    </edge>
    <edge id=":1480216615_5" function="internal">
        <lane id=":1480216615_5_0" index="0" allow="pedestrian delivery bicycle" speed="3.65" length="4.67" shape="1285.51,768.39 1284.07,768.41 1283.28,767.98 1283.16,767.10 1283.69,765.76"/>
    </edge>
    <edge id=":1480216615_6" function="internal">
        <lane id=":1480216615_6_0" index="0" allow="pedestrian delivery bicycle" speed="4.69" length="6.87" shape="1280.34,763.46 1280.06,765.67 1280.53,766.79 1281.74,766.82 1283.69,765.76"/>
    </edge>
    <edge id=":1480216615_7" function="internal">
        <lane id=":1480216615_7_0" index="0" allow="pedestrian delivery bicycle" speed="5.56" length="12.40" shape="1280.34,763.46 1279.57,767.54 1279.35,770.92 1279.67,773.60 1280.53,775.59"/>
    </edge>
    <edge id=":1480216615_8" function="internal">
        <lane id=":1480216615_8_0" index="0" allow="pedestrian delivery bicycle" speed="3.65" length="4.67" shape="1280.34,763.46 1279.28,764.45 1278.41,764.66 1277.73,764.08 1277.22,762.73"/>
    </edge>
    <edge id=":1493332168_0" function="internal">
        <lane id=":1493332168_0_0" index="0" allow="pedestrian delivery bicycle" speed="8.33" length="5.03" shape="669.96,948.03 669.75,953.06"/>
    </edge>
    <edge id=":1493332168_1" function="internal">
        <lane id=":1493332168_1_0" index="0" allow="pedestrian delivery bicycle" speed="3.65" length="4.67" shape="669.96,948.03 669.11,949.20 668.29,949.56 667.51,949.13 666.76,947.90"/>
    </edge>
    <edge id=":1493332168_2" function="internal">
        <lane id=":1493332168_2_0" index="0" allow="pedestrian delivery bicycle" speed="8.33" length="5.03" shape="666.55,952.92 666.76,947.90"/>
    </edge>
    <edge id=":1493332168_3" function="internal">
        <lane id=":1493332168_3_0" index="0" allow="pedestrian delivery bicycle" speed="3.65" length="4.67" shape="666.55,952.92 667.40,951.76 668.22,951.39 669.00,951.83 669.75,953.06"/>
    </edge>
    <edge id=":1493332169_0" function="internal">
        <lane id=":1493332169_0_0" index="0" allow="pedestrian bicycle" speed="5.56" length="5.01" width="2.00" shape="455.76,977.02 451.46,974.44"/>
    </edge>
    <edge id=":1493332169_1" function="internal">
        <lane id=":1493332169_1_0" index="0" allow="pedestrian bicycle" speed="2.89" length="2.39" width="2.00" shape="455.76,977.02 455.37,976.20 455.41,975.65 455.88,975.34 456.25,975.33"/>
    </edge>
    <edge id=":1493332169_4" function="internal">
        <lane id=":1493332169_4_0" index="0" allow="pedestrian bicycle" speed="2.89" length="0.53" width="2.00" shape="456.25,975.33 456.78,975.30"/>
    </edge>
    <edge id=":1493332169_2" function="internal">
        <lane id=":1493332169_2_0" index="0" allow="pedestrian bicycle" speed="5.56" length="5.01" width="2.00" shape="452.49,972.73 456.78,975.30"/>
    </edge>
    <edge id=":1493332169_3" function="internal">
        <lane id=":1493332169_3_0" index="0" allow="pedestrian bicycle" speed="2.89" length="2.39" width="2.00" shape="452.49,972.73 452.87,973.54 452.83,974.10 452.36,974.40 451.99,974.42"/>
    </edge>
    <edge id=":1493332169_5" function="internal">
        <lane id=":1493332169_5_0" index="0" allow="pedestrian bicycle" speed="2.89" length="0.53" width="2.00" shape="451.99,974.42 451.46,974.44"/>
    </edge>
    <edge id=":1493332172_0" function="internal">
        <lane id=":1493332172_0_0" index="0" allow="pedestrian delivery bicycle" speed="8.33" length="4.82" shape="665.93,1054.74 665.92,1056.17 665.89,1057.15 665.80,1058.13 665.64,1059.55"/>
    </edge>
    <edge id=":1493332172_1" function="internal">
        <lane id=":1493332172_1_0" index="0" allow="pedestrian delivery bicycle" speed="3.65" length="4.67" shape="665.93,1054.74 665.13,1055.94 664.32,1056.34 663.53,1055.93 662.73,1054.73"/>
    </edge>
    <edge id=":1493332172_2" function="internal">
        <lane id=":1493332172_2_0" index="0" allow="pedestrian delivery bicycle" speed="8.33" length="4.45" shape="662.46,1059.17 662.61,1057.85 662.69,1056.95 662.72,1056.05 662.73,1054.73"/>
    </edge>
    <edge id=":1493332172_3" function="internal">
        <lane id=":1493332172_3_0" index="0" allow="pedestrian delivery bicycle" speed="3.65" length="4.67" shape="662.46,1059.17 663.40,1058.07 664.24,1057.77 664.99,1058.26 665.64,1059.55"/>
    </edge>
    <edge id=":1493332174_0" function="internal">
        <lane id=":1493332174_0_0" index="0" allow="pedestrian delivery bicycle" speed="6.80" length="14.33" shape="659.82,1078.46 658.05,1075.41 655.72,1074.61 652.82,1076.08 649.35,1079.80"/>
    </edge>
    <edge id=":1493332174_1" function="internal">
        <lane id=":1493332174_1_0" index="0" allow="pedestrian bicycle" speed="6.95" length="14.21" width="2.00" shape="659.82,1078.46 658.63,1076.59 656.34,1074.61 652.96,1072.51 648.48,1070.31"/>
    </edge>
    <edge id=":1493332174_2" function="internal">
        <lane id=":1493332174_2_0" index="0" allow="pedestrian delivery bicycle" speed="8.33" length="8.24" shape="659.82,1078.46 659.07,1076.16 658.84,1074.47 659.15,1072.79 660.03,1070.55"/>
    </edge>
    <edge id=":1493332174_3" function="internal">
        <lane id=":1493332174_3_0" index="0" allow="pedestrian delivery bicycle" speed="3.65" length="1.44" shape="659.82,1078.46 660.17,1077.06"/>
    </edge>
    <edge id=":1493332174_16" function="internal">
        <lane id=":1493332174_16_0" index="0" allow="pedestrian delivery bicycle" speed="3.65" length="3.23" shape="660.17,1077.06 660.79,1076.42 661.68,1076.53 662.83,1077.39"/>
    </edge>
    <edge id=":1493332174_4" function="internal">
        <lane id=":1493332174_4_0" index="0" allow="pedestrian delivery bicycle" speed="8.33" length="5.80" shape="662.97,1071.83 662.35,1073.40 662.14,1074.58 662.31,1075.77 662.83,1077.39"/>
    </edge>
    <edge id=":1493332174_5" function="internal">
        <lane id=":1493332174_5_0" index="0" allow="pedestrian delivery bicycle" speed="6.95" length="2.00" shape="662.97,1071.83 661.58,1073.26"/>
    </edge>
    <edge id=":1493332174_6" function="internal">
        <lane id=":1493332174_6_0" index="0" allow="pedestrian bicycle" speed="6.95" length="1.82" width="2.00" shape="662.97,1071.83 661.63,1073.06"/>
    </edge>
    <edge id=":1493332174_7" function="internal">
        <lane id=":1493332174_7_0" index="0" allow="pedestrian delivery bicycle" speed="3.65" length="1.44" shape="662.97,1071.83 661.76,1072.61"/>
    </edge>
    <edge id=":1493332174_17" function="internal">
        <lane id=":1493332174_17_0" index="0" allow="pedestrian delivery bicycle" speed="6.95" length="14.05" shape="661.58,1073.26 660.43,1074.45 656.56,1076.05 652.49,1077.53 649.35,1079.80"/>
    </edge>
    <edge id=":1493332174_18" function="internal">
        <lane id=":1493332174_18_0" index="0" allow="pedestrian bicycle" speed="6.95" length="13.79" width="2.00" shape="661.63,1073.06 661.38,1073.30 658.44,1073.54 654.14,1072.54 648.48,1070.31"/>
    </edge>
    <edge id=":1493332174_19" function="internal">
        <lane id=":1493332174_19_0" index="0" allow="pedestrian delivery bicycle" speed="3.65" length="3.23" shape="661.76,1072.61 660.86,1072.65 660.29,1071.97 660.03,1070.55"/>
    </edge>
    <edge id=":1493332174_8" function="internal">
        <lane id=":1493332174_8_0" index="0" allow="pedestrian bicycle" speed="6.95" length="11.45" width="2.00" shape="649.30,1068.48 653.62,1070.25 656.85,1071.19 658.99,1071.29 660.03,1070.55"/>
    </edge>
    <edge id=":1493332174_9" function="internal">
        <lane id=":1493332174_9_0" index="0" allow="pedestrian bicycle" speed="6.95" length="16.42" width="2.00" shape="649.30,1068.48 654.78,1071.12 658.86,1073.49 661.54,1075.58 662.83,1077.39"/>
    </edge>
    <edge id=":1493332174_10" function="internal">
        <lane id=":1493332174_10_0" index="0" allow="pedestrian bicycle" speed="5.56" length="13.49" width="2.00" shape="649.30,1068.48 651.75,1070.29 652.58,1072.78 651.78,1075.95 649.35,1079.80"/>
    </edge>
    <edge id=":1493332174_11" function="internal">
        <lane id=":1493332174_11_0" index="0" allow="pedestrian bicycle" speed="2.89" length="2.92" width="2.00" shape="649.30,1068.48 649.78,1069.25 649.80,1069.81 649.37,1070.16 648.48,1070.31"/>
    </edge>
    <edge id=":1493332174_12" function="internal">
        <lane id=":1493332174_12_0" index="0" allow="pedestrian bicycle" speed="5.07" length="5.99" width="2.00" shape="648.80,1075.28 649.82,1073.63 650.10,1072.25 649.66,1071.14 648.48,1070.31"/>
    </edge>
    <edge id=":1493332174_13" function="internal">
        <lane id=":1493332174_13_0" index="0" allow="pedestrian delivery bicycle" speed="6.95" length="12.67" shape="648.80,1075.28 651.56,1073.52 654.82,1073.15 657.87,1072.67 660.03,1070.55"/>
    </edge>
    <edge id=":1493332174_14" function="internal">
        <lane id=":1493332174_14_0" index="0" allow="pedestrian delivery bicycle" speed="6.95" length="19.87" shape="648.80,1075.28 653.09,1070.99 656.87,1069.92 660.11,1072.05 662.83,1077.39"/>
    </edge>
    <edge id=":1493332174_15" function="internal">
        <lane id=":1493332174_15_0" index="0" allow="pedestrian delivery bicycle" speed="4.13" length="6.65" shape="648.80,1075.28 650.63,1076.21 651.33,1077.27 650.90,1078.46 649.35,1079.80"/>
    </edge>
    <edge id=":1493332175_0" function="internal">
        <lane id=":1493332175_0_0" index="0" disallow="tram rail_urban rail rail_electric rail_fast ship" speed="13.89" length="9.39" shape="669.89,1090.06 660.82,1092.47"/>
        <lane id=":1493332175_0_1" index="1" disallow="tram rail_urban rail rail_electric rail_fast ship" speed="13.89" length="9.39" shape="669.08,1086.97 660.00,1089.37"/>
    </edge>
    <edge id=":1493332175_2" function="internal">
        <lane id=":1493332175_2_0" index="0" allow="pedestrian delivery bicycle" speed="7.08" length="3.10" shape="669.08,1086.97 666.44,1087.25 666.02,1087.12"/>
    </edge>
    <edge id=":1493332175_8" function="internal">
        <lane id=":1493332175_8_0" index="0" allow="pedestrian delivery bicycle" speed="7.08" length="7.09" shape="666.02,1087.12 664.25,1086.58 662.51,1084.96 661.21,1082.40"/>
    </edge>
    <edge id=":1493332175_3" function="internal">
        <lane id=":1493332175_3_0" index="0" allow="pedestrian delivery bicycle" speed="5.33" length="5.34" shape="664.23,1081.33 664.92,1082.73 665.82,1083.62 666.94,1084.00 668.27,1083.87"/>
    </edge>
    <edge id=":1493332175_4" function="internal">
        <lane id=":1493332175_4_0" index="0" allow="pedestrian delivery bicycle" speed="6.80" length="10.56" shape="664.23,1081.33 664.80,1084.20 664.29,1086.50 662.69,1088.22 660.00,1089.37"/>
    </edge>
    <edge id=":1493332175_5" function="internal">
        <lane id=":1493332175_5_0" index="0" allow="pedestrian delivery bicycle" speed="3.65" length="4.67" shape="664.23,1081.33 663.88,1082.73 663.26,1083.38 662.37,1083.27 661.21,1082.40"/>
    </edge>
    <edge id=":1493332175_6" function="internal">
        <lane id=":1493332175_6_0" index="0" allow="pedestrian delivery bicycle" speed="4.96" length="5.10" shape="659.17,1086.28 660.47,1085.73 661.24,1084.90 661.49,1083.79 661.21,1082.40"/>
    </edge>
    <edge id=":1493332175_7" function="internal">
        <lane id=":1493332175_7_0" index="0" disallow="tram rail_urban rail rail_electric rail_fast ship" speed="13.89" length="9.41" shape="659.17,1086.28 668.27,1083.87"/>
    </edge>
    <edge id=":1549537376_0" function="internal">
        <lane id=":1549537376_0_0" index="0" disallow="tram rail_urban rail rail_electric rail_fast ship" speed="7.96" length="11.56" shape="2401.45,687.72 2399.82,685.12 2397.70,683.45 2395.11,682.70 2392.03,682.89"/>
    </edge>
    <edge id=":1549537376_1" function="internal">
        <lane id=":1549537376_1_0" index="0" disallow="tram rail_urban rail rail_electric rail_fast ship" speed="13.89" length="16.04" shape="2401.45,687.72 2394.84,673.10"/>
    </edge>
    <edge id=":1549537376_2" function="internal">
        <lane id=":1549537376_2_0" index="0" disallow="tram rail_urban rail rail_electric rail_fast ship" speed="7.66" length="4.28" shape="2401.45,687.72 2400.26,683.61"/>
    </edge>
    <edge id=":1549537376_3" function="internal">
        <lane id=":1549537376_3_0" index="0" disallow="tram rail_urban rail rail_electric rail_fast ship" speed="3.65" length="1.44" shape="2401.45,687.72 2401.68,686.30"/>
    </edge>
    <edge id=":1549537376_16" function="internal">
        <lane id=":1549537376_16_0" index="0" disallow="tram rail_urban rail rail_electric rail_fast ship" speed="7.66" length="10.83" shape="2400.26,683.61 2400.81,680.38 2403.10,678.04 2407.13,676.60"/>
    </edge>
    <edge id=":1549537376_17" function="internal">
        <lane id=":1549537376_17_0" index="0" disallow="tram rail_urban rail rail_electric rail_fast ship" speed="3.65" length="3.23" shape="2401.68,686.30 2402.25,685.61 2403.14,685.64 2404.36,686.41"/>
    </edge>
    <edge id=":1549537376_4" function="internal">
        <lane id=":1549537376_4_0" index="0" disallow="tram rail_urban rail rail_electric rail_fast ship" speed="6.08" length="9.06" shape="2407.77,679.73 2405.35,680.60 2403.98,682.00 2403.65,683.94 2404.36,686.41"/>
    </edge>
    <edge id=":1549537376_5" function="internal">
        <lane id=":1549537376_5_0" index="0" disallow="tram rail_urban rail rail_electric rail_fast ship" speed="13.89" length="16.06" shape="2407.77,679.73 2392.03,682.89"/>
    </edge>
    <edge id=":1549537376_6" function="internal">
        <lane id=":1549537376_6_0" index="0" disallow="tram rail_urban rail rail_electric rail_fast ship" speed="9.21" length="15.88" shape="2407.77,679.73 2403.55,680.02 2399.99,679.01 2397.09,676.70 2394.84,673.10"/>
    </edge>
    <edge id=":1549537376_7" function="internal">
        <lane id=":1549537376_7_0" index="0" disallow="tram rail_urban rail rail_electric rail_fast ship" speed="3.65" length="4.67" shape="2407.77,679.73 2406.44,679.19 2405.88,678.49 2406.11,677.62 2407.13,676.60"/>
    </edge>
    <edge id=":1549537376_8" function="internal">
        <lane id=":1549537376_8_0" index="0" disallow="tram rail_urban rail rail_electric rail_fast ship" speed="7.92" length="11.51" shape="2397.75,671.79 2399.38,674.40 2401.49,676.07 2404.07,676.80 2407.13,676.60"/>
    </edge>
    <edge id=":1549537376_9" function="internal">
        <lane id=":1549537376_9_0" index="0" disallow="tram rail_urban rail rail_electric rail_fast ship" speed="13.89" length="16.04" shape="2397.75,671.79 2404.36,686.41"/>
    </edge>
    <edge id=":1549537376_10" function="internal">
        <lane id=":1549537376_10_0" index="0" disallow="tram rail_urban rail rail_electric rail_fast ship" speed="7.65" length="4.30" shape="2397.75,671.79 2398.95,675.92"/>
    </edge>
    <edge id=":1549537376_11" function="internal">
        <lane id=":1549537376_11_0" index="0" disallow="tram rail_urban rail rail_electric rail_fast ship" speed="3.65" length="1.44" shape="2397.75,671.79 2397.52,673.21"/>
    </edge>
    <edge id=":1549537376_18" function="internal">
        <lane id=":1549537376_18_0" index="0" disallow="tram rail_urban rail rail_electric rail_fast ship" speed="7.65" length="10.85" shape="2398.95,675.92 2398.39,679.14 2396.09,681.47 2392.03,682.89"/>
    </edge>
    <edge id=":1549537376_19" function="internal">
        <lane id=":1549537376_19_0" index="0" disallow="tram rail_urban rail rail_electric rail_fast ship" speed="3.65" length="3.23" shape="2397.52,673.21 2396.96,673.90 2396.06,673.87 2394.84,673.10"/>
    </edge>
    <edge id=":1549537376_12" function="internal">
        <lane id=":1549537376_12_0" index="0" disallow="tram rail_urban rail rail_electric rail_fast ship" speed="6.07" length="9.07" shape="2391.41,679.75 2393.84,678.90 2395.22,677.51 2395.55,675.58 2394.84,673.10"/>
    </edge>
    <edge id=":1549537376_13" function="internal">
        <lane id=":1549537376_13_0" index="0" disallow="tram rail_urban rail rail_electric rail_fast ship" speed="13.89" length="16.03" shape="2391.41,679.75 2407.13,676.60"/>
    </edge>
    <edge id=":1549537376_14" function="internal">