<?xml version="1.0" encoding="UTF-8"?>

<!-- generated on 2022-10-11 14:47:01 by Eclipse SUMO polyconvert Version 1.14.1
<configuration xmlns:xsi="http://www.w3.org/2001/XMLSchema-instance" xsi:noNamespaceSchemaLocation="http://sumo.dlr.de/xsd/polyconvertConfiguration.xsd">

    <input>
        <net-file value="osm.net.xml"/>
        <osm-files value="osm_bbox.osm.xml.gz"/>
        <osm.keep-full-type value="true"/>
        <type-file value="C:\Program%20Files%20(x86)\Eclipse\Sumo\data\typemap\osmPolyconvert.typ.xml"/>
    </input>

    <output>
        <output-file value="osm.poly.xml"/>
    </output>

    <report>
        <verbose value="true"/>
    </report>

</configuration>
-->

<additional xmlns:xsi="http://www.w3.org/2001/XMLSchema-instance" xsi:noNamespaceSchemaLocation="http://sumo.dlr.de/xsd/additional_file.xsd">
    <location netOffset="-393785.26,-5823985.45" convBoundary="-5722.58,-978.64,4119.51,6926.23" origBoundary="13.347594,52.546956,13.492916,52.617173" projParameter="+proj=utm +zone=33 +ellps=WGS84 +datum=WGS84 +units=m +no_defs"/>

    <poly id="10197273" type="historic.railway" color="128,255,128" fill="0" layer="-1.00" shape="1944.201067,573.787107 1895.766958,572.750351 1760.409537,570.131552 1648.334257,568.242628"/>
    <poly id="1022837013" type="leisure.park" color="207,245,201" fill="1" layer="-2.00" shape="1015.339094,1539.290214 996.053888,1564.997935 1122.236251,1667.460419 1127.584111,1671.807563 1292.162523,1857.717075 1310.105765,1878.140279 1342.765669,1847.295284 1339.030954,1843.859139 1332.039970,1837.800023 1318.805140,1827.012206 1298.097881,1812.378917 1283.807949,1792.556104 1281.801915,1790.696373 1279.927261,1788.956224 1278.917108,1788.009821 1244.758469,1745.902559 1239.213883,1741.225695 1233.745025,1736.602847 1171.574422,1673.499339 1138.531972,1643.341914 1142.721028,1639.513056 1133.763580,1627.788094 1128.541733,1631.828326 1126.631219,1633.471746 1124.673589,1634.815739 1115.191311,1625.171796 1112.873016,1622.985020 1110.789912,1621.015737 1043.166186,1554.180911 1026.575080,1537.779919 1020.243663,1544.136394 1015.339094,1539.290214"/>
    <poly id="1040902431" type="building.apartments" color="255,230,230" fill="1" layer="-1.00" shape="868.598318,1407.785492 880.802781,1407.155327 886.964616,1381.596334 875.677902,1378.879597 868.598318,1407.785492"/>
    <poly id="1040902432" type="building.apartments" color="255,230,230" fill="1" layer="-1.00" shape="877.936690,1370.741268 888.898357,1373.476140 895.985240,1345.215518 884.752426,1342.486469 877.936690,1370.741268"/>
    <poly id="1040902433" type="building.apartments" color="255,230,230" fill="1" layer="-1.00" shape="886.827067,1334.296476 898.170249,1337.112172 905.185335,1308.975517 893.842093,1306.159804 886.827067,1334.296476"/>
    <poly id="1042199775" type="building.house" color="255,230,230" fill="1" layer="-1.00" shape="996.538880,1180.166927 996.501806,1180.334636 990.359434,1178.797704 990.321881,1178.943169 986.006631,1177.867657 987.386915,1172.374375 997.844547,1174.986822 996.538880,1180.166927"/>
    <poly id="1042199776" type="building.house" color="255,230,230" fill="1" layer="-1.00" shape="997.844547,1174.986822 987.386915,1172.374375 988.735948,1167.004168 999.193831,1169.627740 997.844547,1174.986822"/>
    <poly id="1042199777" type="building.house" color="255,230,230" fill="1" layer="-1.00" shape="999.193831,1169.627740 1000.542399,1164.235292 990.091523,1161.622694 988.735948,1167.004168 999.193831,1169.627740"/>
    <poly id="1042199778" type="building.house" color="255,230,230" fill="1" layer="-1.00" shape="1000.542399,1164.235292 990.091523,1161.622694 991.447101,1156.241220 995.701132,1157.306927 1001.879570,1158.943237 1000.542399,1164.235292"/>
    <poly id="1042199779" type="building.house" color="255,230,230" fill="0" layer="-1.00" shape="1001.860673,1159.010408 1006.237412,1160.106867 1007.630323,1154.568810 1005.728400,1154.097872 1000.335829,1152.745087 997.056718,1151.925455 995.701132,1157.306927 1001.879570,1158.943237"/>
    <poly id="1042199780" type="building.garage" color="255,230,230" fill="1" layer="-1.00" shape="998.013812,1186.633615 997.320157,1189.374766 991.907290,1188.022428 992.600941,1185.281276 998.013812,1186.633615"/>
    <poly id="1042199781" type="building.house" color="255,230,230" fill="1" layer="-1.00" shape="1026.132477,1151.633675 1036.678716,1154.266554 1037.884368,1149.478074 1027.338120,1146.845192 1026.132477,1151.633675"/>
    <poly id="1042199782" type="building.house" color="255,230,230" fill="1" layer="-1.00" shape="1035.448589,1159.177962 1034.205627,1164.123030 1023.652391,1161.479180 1024.895343,1156.534110 1035.448589,1159.177962"/>
    <poly id="1042199783" type="building.house" color="255,230,230" fill="1" layer="-1.00" shape="1032.987145,1168.945170 1034.205627,1164.123030 1023.652391,1161.479180 1022.440696,1166.301176 1032.987145,1168.945170"/>
    <poly id="1042199784" type="building.house" color="255,230,230" fill="1" layer="-1.00" shape="1036.678716,1154.266554 1026.132477,1151.633675 1024.895343,1156.534110 1035.448589,1159.177962 1036.678716,1154.266554"/>
    <poly id="1042199785" type="building.house" color="255,230,230" fill="1" layer="-1.00" shape="1037.884368,1149.478074 1039.165371,1144.409787 1034.815976,1143.323839 1034.772123,1143.491694 1028.575021,1141.933635 1028.543765,1142.056710 1027.338120,1146.845192 1037.884368,1149.478074"/>
    <poly id="1042199786" type="building.garage" color="255,230,230" fill="1" layer="-1.00" shape="1024.969645,1177.952839 1024.282513,1180.682718 1016.749419,1178.797340 1017.436547,1176.067460 1024.969645,1177.952839"/>
    <poly id="1042199787" type="building.house" color="255,230,230" fill="1" layer="-1.00" shape="1027.442739,1172.825520 1026.080828,1178.229374 1024.969645,1177.952839 1017.436547,1176.067460 1015.534634,1175.596519 1016.952505,1169.957781 1021.254200,1171.033612 1027.473754,1172.691323 1027.442739,1172.825520"/>
    <poly id="1042199788" type="building.house" color="255,230,230" fill="1" layer="-1.00" shape="1034.815976,1143.323839 1034.772123,1143.491694 1028.575021,1141.933635 1028.543765,1142.056710 1024.419458,1141.032692 1025.837113,1135.382835 1032.054317,1136.929331 1036.165310,1137.964768 1034.815976,1143.323839"/>
    <poly id="1042199789" type="building.semidetached_house" color="255,230,230" fill="1" layer="-1.00" shape="1077.546047,1177.000044 1081.920744,1181.156659 1074.513468,1188.904851 1070.145788,1184.759219 1077.546047,1177.000044"/>
    <poly id="1042199790" type="building.garage" color="255,230,230" fill="1" layer="-1.00" shape="1067.592555,1171.027228 1069.677293,1173.063227 1065.868843,1176.950713 1063.784345,1174.925837 1067.592555,1171.027228"/>
    <poly id="1042199791" type="building.garage" color="255,230,230" fill="1" layer="-1.00" shape="1063.784345,1174.925837 1061.762038,1172.955262 1065.570487,1169.067774 1067.592555,1171.027228 1063.784345,1174.925837"/>
    <poly id="1042199792" type="building.garage" color="255,230,230" fill="1" layer="-1.00" shape="1046.800357,1157.965695 1048.203919,1152.605461 1050.829273,1153.294532 1049.425708,1158.654765 1046.800357,1157.965695"/>
    <poly id="1042199793" type="building.semidetached_house" color="255,230,230" fill="1" layer="-1.00" shape="1053.737302,1169.333393 1061.149920,1161.518291 1065.593136,1165.706800 1058.173741,1173.522041 1053.737302,1169.333393"/>
    <poly id="1042199794" type="building.house" color="255,230,230" fill="1" layer="-1.00" shape="1005.860298,1117.686037 1005.891553,1117.562963 1011.979535,1119.089959 1012.023149,1118.910982 1016.277207,1119.976707 1014.864900,1125.559688 1004.529647,1122.966823 1005.860298,1117.686037"/>
    <poly id="1042199795" type="building.house" color="255,230,230" fill="0" layer="-1.00" shape="1009.208751,1129.920941 1007.871563,1135.212994 997.386503,1132.589986 998.780131,1127.085294 1003.211358,1128.191706 1003.173804,1128.337171 1009.220870,1129.853916"/>
    <poly id="1042199796" type="building.house" color="255,230,230" fill="1" layer="-1.00" shape="997.386503,1132.589986 1007.871563,1135.212994 1006.571692,1140.348460 1006.528318,1140.538560 1000.494819,1139.021527 1000.444668,1139.211772 995.999656,1138.094533 997.386503,1132.589986"/>
    <poly id="1042199797" type="building.house" color="255,230,230" fill="1" layer="-1.00" shape="1000.444668,1139.211772 1000.494819,1139.021527 1006.528318,1140.538560 1006.571692,1140.348460 1010.900764,1141.434822 1009.501307,1146.984145 1007.674174,1146.522724 999.943277,1144.585990 999.145524,1144.380608 1000.444668,1139.211772"/>
    <poly id="1042199798" type="building.house" color="255,230,230" fill="1" layer="-1.00" shape="1014.864900,1125.559688 1013.496927,1130.997058 1009.208751,1129.920941 1003.173804,1128.337171 1003.211358,1128.191706 1004.529647,1122.966823 1014.864900,1125.559688"/>
    <poly id="1042199799" type="building.house" color="255,230,230" fill="1" layer="-1.00" shape="1023.088196,1093.335733 1027.123733,1097.165775 1019.729962,1104.913757 1015.694425,1101.083721 1023.088196,1093.335733"/>
    <poly id="1042199800" type="building.house" color="255,230,230" fill="1" layer="-1.00" shape="1019.080481,1089.538478 1015.390988,1086.034820 1014.376276,1087.091504 1010.629754,1091.022208 1007.997217,1093.782819 1011.686709,1097.286471 1019.080481,1089.538478"/>
    <poly id="1042199801" type="building.house" color="255,230,230" fill="1" layer="-1.00" shape="1019.729962,1104.913757 1027.123733,1097.165775 1030.882420,1100.734718 1028.826603,1102.882030 1025.027059,1106.869501 1023.488649,1108.482694 1019.729962,1104.913757"/>
    <poly id="1042199802" type="building.house" color="255,230,230" fill="1" layer="-1.00" shape="1033.596147,1117.823728 1041.063754,1110.040797 1045.078931,1113.871291 1037.618101,1121.654070 1033.596147,1117.823728"/>
    <poly id="1042199803" type="building.house" color="255,230,230" fill="1" layer="-1.00" shape="1037.618101,1121.654070 1045.078931,1113.871291 1049.024652,1117.625390 1041.557284,1125.419432 1037.618101,1121.654070"/>
    <poly id="1042199804" type="building.house" color="255,230,230" fill="1" layer="-1.00" shape="1041.557284,1125.419432 1049.024652,1117.625390 1053.026022,1121.445060 1045.565432,1129.238950 1041.557284,1125.419432"/>
    <poly id="1042199805" type="building.house" color="255,230,230" fill="1" layer="-1.00" shape="1045.565432,1129.238950 1053.026022,1121.445060 1057.131202,1125.362647 1055.227918,1127.350883 1051.401263,1131.338917 1049.670372,1133.145408 1045.565432,1129.238950"/>
    <poly id="1042199806" type="building.house" color="255,230,230" fill="1" layer="-1.00" shape="1074.979190,1142.137337 1070.874995,1138.264224 1063.449488,1146.112969 1067.546666,1149.975099 1074.979190,1142.137337"/>
    <poly id="1042199807" type="building.house" color="255,230,230" fill="1" layer="-1.00" shape="1070.874995,1138.264224 1066.819432,1134.445706 1059.393925,1142.294457 1063.449488,1146.112969 1070.874995,1138.264224"/>
    <poly id="1042199808" type="building.house" color="255,230,230" fill="1" layer="-1.00" shape="1066.819432,1134.445706 1062.743052,1130.605383 1062.491248,1130.877857 1056.895424,1136.784471 1055.317545,1138.454141 1059.393925,1142.294457 1066.819432,1134.445706"/>
    <poly id="1042199809" type="building.garage" color="255,230,230" fill="1" layer="-1.00" shape="1081.232210,1151.973065 1083.301481,1153.920383 1079.522507,1157.918497 1077.452997,1155.960058 1081.232210,1151.973065"/>
    <poly id="1042199810" type="building.garage" color="255,230,230" fill="1" layer="-1.00" shape="1079.128332,1149.993109 1081.232210,1151.973065 1077.452997,1155.960058 1075.349119,1153.980104 1079.128332,1149.993109"/>
    <poly id="1042199811" type="building.garage" color="255,230,230" fill="1" layer="-1.00" shape="1076.996625,1147.980371 1079.128332,1149.993109 1075.349119,1153.980104 1073.217651,1151.978490 1076.996625,1147.980371"/>
    <poly id="1042199812" type="building.garage" color="255,230,230" fill="1" layer="-1.00" shape="1062.491248,1130.877857 1060.429214,1128.952646 1054.871903,1134.758288 1056.895424,1136.784471 1062.491248,1130.877857"/>
    <poly id="1042199813" type="building.garage" color="255,230,230" fill="1" layer="-1.00" shape="1055.227918,1127.350883 1057.339311,1129.364050 1053.512895,1133.363204 1051.401263,1131.338917 1055.227918,1127.350883"/>
    <poly id="1042199814" type="building.garage" color="255,230,230" fill="1" layer="-1.00" shape="1032.054317,1136.929331 1032.729103,1134.255356 1038.107890,1135.597346 1037.433341,1138.282442 1036.165310,1137.964768 1032.054317,1136.929331"/>
    <poly id="1042199815" type="building.garage" color="255,230,230" fill="1" layer="-1.00" shape="1007.674174,1146.522724 1006.924296,1149.487632 999.193403,1147.550899 999.943277,1144.585990 1007.674174,1146.522724"/>
    <poly id="1042199816" type="building.garage" color="255,230,230" fill="1" layer="-1.00" shape="1000.335829,1152.745087 1001.029013,1149.981692 1006.421347,1151.323355 1005.728400,1154.097872 1000.335829,1152.745087"/>
    <poly id="1042199817" type="building.garages" color="255,230,230" fill="1" layer="-1.00" shape="1009.559710,1083.834648 1010.328182,1081.103018 1004.911611,1079.583830 1004.143142,1082.315461 1009.559710,1083.834648"/>
    <poly id="1042199818" type="building.garage" color="255,230,230" fill="1" layer="-1.00" shape="990.057261,1087.247589 990.875155,1084.292343 996.297786,1085.778002 995.486667,1088.733102 990.057261,1087.247589"/>
    <poly id="1042199819" type="building.garage" color="255,230,230" fill="1" layer="-1.00" shape="989.321253,1089.911760 988.553752,1092.687883 993.983391,1094.184517 994.750656,1091.397272 989.321253,1089.911760"/>
    <poly id="1042199820" type="building.garage" color="255,230,230" fill="1" layer="-1.00" shape="988.553752,1092.687883 987.818225,1095.374299 993.240844,1096.859955 993.983391,1094.184517 988.553752,1092.687883"/>
    <poly id="1042199821" type="building.garage" color="255,230,230" fill="1" layer="-1.00" shape="987.818225,1095.374299 987.044187,1098.161691 992.473821,1099.658322 993.240844,1096.859955 987.818225,1095.374299"/>
    <poly id="1042199822" type="building.garage" color="255,230,230" fill="1" layer="-1.00" shape="987.044187,1098.161691 986.264809,1101.015962 991.687423,1102.501616 992.473821,1099.658322 987.044187,1098.161691"/>
    <poly id="1042199823" type="building.garage" color="255,230,230" fill="1" layer="-1.00" shape="986.264809,1101.015962 985.491013,1103.814476 990.913624,1105.300130 991.687423,1102.501616 986.264809,1101.015962"/>
    <poly id="1042199824" type="building.garage" color="255,230,230" fill="1" layer="-1.00" shape="1002.845741,1110.885270 1002.498173,1110.803730 1003.173426,1108.151996 1008.484235,1109.484290 1007.815757,1112.135877 1002.845741,1110.885270"/>
    <poly id="1042199825" type="building.garage" color="255,230,230" fill="1" layer="-1.00" shape="1030.897151,1112.451597 1028.854951,1110.503717 1032.681606,1106.515666 1034.716789,1108.452571 1030.897151,1112.451597"/>
    <poly id="1042199826" type="building.garage" color="255,230,230" fill="1" layer="-1.00" shape="1028.826603,1102.882030 1030.882600,1104.840740 1027.083056,1108.828209 1025.027059,1106.869501 1028.826603,1102.882030"/>
    <poly id="1042199827" type="building.garage" color="255,230,230" fill="1" layer="-1.00" shape="1010.629754,1091.022208 1008.580760,1089.074482 1012.327282,1085.143777 1014.376276,1087.091504 1010.629754,1091.022208"/>
    <poly id="1042202809" type="building.garage" color="255,230,230" fill="1" layer="-1.00" shape="1120.756191,1189.190335 1122.846241,1191.159477 1119.046934,1195.157998 1116.963661,1193.188711 1120.756191,1189.190335"/>
    <poly id="1042202810" type="building.semidetached_house" color="255,230,230" fill="1" layer="-1.00" shape="1118.613721,1183.205315 1122.738652,1187.100275 1120.756191,1189.190335 1116.963661,1193.188711 1115.272717,1194.960939 1111.148026,1191.077107 1118.613721,1183.205315"/>
    <poly id="1042202811" type="building.semidetached_house" color="255,230,230" fill="1" layer="-1.00" shape="1104.480838,1169.855752 1108.613046,1173.772799 1101.166248,1181.577435 1097.034040,1177.660394 1104.480838,1169.855752"/>
    <poly id="1042202812" type="building.semidetached_house" color="255,230,230" fill="1" layer="-1.00" shape="1086.444776,1200.142942 1093.878923,1192.383063 1098.316263,1196.616237 1090.882116,1204.376109 1086.444776,1200.142942"/>
    <poly id="1042202813" type="building.garage" color="255,230,230" fill="1" layer="-1.00" shape="1098.726249,1207.801625 1096.718720,1205.886356 1100.511940,1201.921330 1102.519470,1203.836601 1098.726249,1207.801625"/>
    <poly id="1042202814" type="building.garage" color="255,230,230" fill="1" layer="-1.00" shape="1105.762211,1182.780542 1103.630768,1180.778915 1107.423058,1176.769405 1109.554501,1178.771035 1105.762211,1182.780542"/>
    <poly id="1042202815" type="building.garage" color="255,230,230" fill="1" layer="-1.00" shape="1107.796855,1184.695232 1105.762211,1182.780542 1109.554501,1178.771035 1111.265064,1176.965002 1113.292931,1178.879840 1107.796855,1184.695232"/>
    <poly id="1042202816" type="building.garage" color="255,230,230" fill="1" layer="-1.00" shape="1080.214069,1190.395749 1078.109011,1188.360182 1081.969527,1184.371440 1084.081363,1186.406862 1080.214069,1190.395749"/>
    <poly id="1042202817" type="building.garage" color="255,230,230" fill="1" layer="-1.00" shape="1082.256694,1192.365894 1080.214069,1190.395749 1084.081363,1186.406862 1086.123988,1188.377009 1082.256694,1192.365894"/>
    <poly id="1042202818" type="building.garage" color="255,230,230" fill="1" layer="-1.00" shape="1090.977057,1170.001411 1093.026223,1171.960292 1096.826724,1168.017363 1094.777558,1166.058480 1090.977057,1170.001411"/>
    <poly id="1042202819" type="building.garage" color="255,230,230" fill="1" layer="-1.00" shape="1090.977057,1170.001411 1088.941682,1168.053361 1092.741944,1164.099306 1094.777558,1166.058480 1090.977057,1170.001411"/>
    <poly id="1042202820" type="building.semidetached_house" color="255,230,230" fill="1" layer="-1.00" shape="1090.349312,1156.572962 1094.468466,1160.512534 1087.040567,1168.250020 1082.990622,1164.375732 1090.349312,1156.572962"/>
    <poly id="1042204010" type="building.garage" color="255,230,230" fill="1" layer="-1.00" shape="1145.677111,1252.092247 1147.747750,1254.106325 1151.542166,1250.196950 1149.471766,1248.193992 1146.181433,1251.580674 1145.677111,1252.092247"/>
    <poly id="1042204011" type="building.garage" color="255,230,230" fill="1" layer="-1.00" shape="1142.386783,1255.478931 1140.399383,1253.552085 1144.187255,1249.653973 1146.181433,1251.580674 1145.677111,1252.092247 1142.386783,1255.478931"/>
    <poly id="1042204012" type="building.semidetached_house" color="255,230,230" fill="1" layer="-1.00" shape="1135.594762,1246.422509 1142.980751,1238.630357 1147.465448,1242.862555 1140.086236,1250.654554 1135.594762,1246.422509"/>
    <poly id="1042204013" type="building.garage" color="255,230,230" fill="1" layer="-1.00" shape="1146.636834,1221.026079 1144.684982,1219.176359 1148.418428,1215.268293 1150.377296,1217.128991 1146.636834,1221.026079"/>
    <poly id="1042204014" type="building.semidetached_house" color="255,230,230" fill="1" layer="-1.00" shape="1150.052990,1227.595748 1157.432493,1219.814887 1161.515742,1223.666264 1154.136239,1231.447119 1150.052990,1227.595748"/>
    <poly id="1042204015" type="building.semidetached_house" color="255,230,230" fill="1" layer="-1.00" shape="1126.667796,1223.213373 1131.124456,1227.401650 1123.698998,1235.250305 1119.242339,1231.062035 1126.667796,1223.213373"/>
    <poly id="1042204016" type="building.garage" color="255,230,230" fill="1" layer="-1.00" shape="1129.268847,1236.655049 1127.233754,1234.718106 1131.053366,1230.719154 1133.088460,1232.656099 1129.268847,1236.655049"/>
    <poly id="1042204017" type="building.garage" color="255,230,230" fill="1" layer="-1.00" shape="1131.352336,1238.635463 1129.268847,1236.655049 1133.088460,1232.656099 1135.171949,1234.636514 1131.352336,1238.635463"/>
    <poly id="1042204018" type="building.garage" color="255,230,230" fill="1" layer="-1.00" shape="1113.234753,1220.965056 1111.558570,1222.792605 1113.647177,1224.695010 1119.039878,1218.803952 1116.951271,1216.901545 1113.234753,1220.965056"/>
    <poly id="1042204019" type="building.garage" color="255,230,230" fill="1" layer="-1.00" shape="1113.234753,1220.965056 1111.152922,1219.062506 1114.876457,1215.009970 1116.951271,1216.901545 1113.234753,1220.965056"/>
    <poly id="1042204020" type="building.semidetached_house" color="255,230,230" fill="1" layer="-1.00" shape="1110.278993,1207.742434 1114.729620,1211.964209 1107.269559,1219.780250 1102.818932,1215.558482 1110.278993,1207.742434"/>
    <poly id="1042204021" type="building.house" color="255,230,230" fill="1" layer="-1.00" shape="1126.605759,1205.499828 1133.971706,1197.719223 1138.013372,1201.526965 1130.647424,1209.307564 1126.605759,1205.499828"/>
    <poly id="1042204022" type="building.house" color="255,230,230" fill="1" layer="-1.00" shape="1130.647424,1209.307564 1138.013372,1201.526965 1142.034220,1205.312903 1134.668273,1213.093496 1130.647424,1209.307564"/>
    <poly id="1042204023" type="building.house" color="255,230,230" fill="1" layer="-1.00" shape="1134.668273,1213.093496 1142.034220,1205.312903 1146.151858,1209.185783 1144.196029,1211.253006 1140.397199,1215.273755 1138.785910,1216.966370 1134.668273,1213.093496"/>
    <poly id="1042204024" type="building.garage" color="255,230,230" fill="1" layer="-1.00" shape="1140.397199,1215.273755 1142.424801,1217.177482 1146.223869,1213.167857 1144.196029,1211.253006 1140.397199,1215.273755"/>
    <poly id="1042204025" type="building.garage" color="255,230,230" fill="1" layer="-1.00" shape="1122.035737,1197.931251 1119.952466,1195.961964 1123.751534,1191.952321 1125.834566,1193.910488 1122.035737,1197.931251"/>
    <poly id="1042204026" type="building.garage" color="255,230,230" fill="1" layer="-1.00" shape="1124.160387,1199.933033 1122.035737,1197.931251 1125.834566,1193.910488 1127.965994,1195.912126 1124.160387,1199.933033"/>
    <poly id="1042928231" type="building.garage" color="255,230,230" fill="1" layer="-1.00" shape="1160.297785,1269.225893 1158.221336,1267.256444 1163.751737,1261.462623 1165.828424,1263.443197 1160.297785,1269.225893"/>
    <poly id="1042928232" type="building.semidetached_house" color="255,230,230" fill="1" layer="-1.00" shape="1159.354360,1254.034961 1163.832013,1258.256197 1156.446262,1266.059440 1151.968610,1261.838211 1159.354360,1254.034961"/>
    <poly id="1042928233" type="building.garage" color="255,230,230" fill="1" layer="-1.00" shape="1192.950673,1257.152163 1190.949023,1255.192221 1187.073730,1259.125557 1189.075381,1261.085497 1192.950673,1257.152163"/>
    <poly id="1042928234" type="building.garage" color="255,230,230" fill="1" layer="-1.00" shape="1184.104617,1256.318460 1186.208885,1258.320705 1189.982040,1254.367308 1187.870994,1252.365207 1184.104617,1256.318460"/>
    <poly id="1042928235" type="building.semidetached_house" color="255,230,230" fill="1" layer="-1.00" shape="1171.508721,1233.065665 1175.667933,1236.982185 1168.355485,1244.728196 1164.196513,1240.822804 1171.508721,1233.065665"/>
    <poly id="1042928236" type="building.garage" color="255,230,230" fill="1" layer="-1.00" shape="1158.783014,1232.493398 1156.700489,1230.557462 1160.471970,1226.526186 1162.554256,1228.451001 1158.783014,1232.493398"/>
    <poly id="1042928237" type="building.garage" color="255,230,230" fill="1" layer="-1.00" shape="1160.886347,1234.451143 1158.783014,1232.493398 1162.554256,1228.451001 1164.664605,1230.419724 1160.886347,1234.451143"/>
    <poly id="1042928238" type="building.garage" color="255,230,230" fill="1" layer="-1.00" shape="1172.793102,1245.823492 1170.750536,1243.853309 1174.617856,1239.864495 1176.660423,1241.834679 1172.793102,1245.823492"/>
    <poly id="1042928239" type="building.garage" color="255,230,230" fill="1" layer="-1.00" shape="1174.835428,1247.782553 1172.793102,1245.823492 1176.660423,1241.834679 1178.702748,1243.793742 1174.835428,1247.782553"/>
    <poly id="1042928240" type="building.semidetached_house" color="255,230,230" fill="1" layer="-1.00" shape="1185.655275,1246.437372 1189.787355,1250.354487 1187.870994,1252.365207 1184.104617,1256.318460 1182.367425,1258.147295 1178.235346,1254.230187 1185.655275,1246.437372"/>
    <poly id="1042929286" type="building.house" color="255,230,230" fill="1" layer="-1.00" shape="1165.119239,1280.928506 1172.966937,1288.315425 1169.499604,1291.984081 1161.645129,1284.597313 1165.119239,1280.928506"/>
    <poly id="1042929287" type="building.house" color="255,230,230" fill="1" layer="-1.00" shape="1158.270294,1288.152715 1166.125008,1295.550600 1162.644370,1299.230674 1154.796433,1291.832649 1158.270294,1288.152715"/>
    <poly id="1042929288" type="building.house" color="255,230,230" fill="1" layer="-1.00" shape="1166.125008,1295.550600 1169.499604,1291.984081 1161.645129,1284.597313 1158.270294,1288.152715 1166.125008,1295.550600"/>
    <poly id="1042929289" type="building.house" color="255,230,230" fill="1" layer="-1.00" shape="1154.796433,1291.832649 1162.644370,1299.230674 1159.289637,1302.774516 1159.163498,1302.899628 1154.478499,1298.493687 1154.392306,1298.584558 1151.229608,1295.603602 1154.796433,1291.832649"/>
    <poly id="1042929290" type="building.house" color="255,230,230" fill="1" layer="-1.00" shape="1151.017725,1302.151088 1158.906794,1309.570478 1155.055011,1313.647993 1153.020436,1311.733284 1148.985885,1307.936507 1147.165703,1306.217487 1151.017725,1302.151088"/>
    <poly id="1042929291" type="building.house" color="255,230,230" fill="1" layer="-1.00" shape="1183.009373,1283.926894 1186.914466,1279.803748 1181.917803,1275.092907 1179.018380,1272.373336 1175.120064,1276.496343 1183.009373,1283.926894"/>
    <poly id="1042929292" type="building.garage" color="255,230,230" fill="1" layer="-1.00" shape="1177.841866,1271.263613 1173.793271,1267.444862 1175.735774,1265.389064 1179.790907,1269.196549 1177.841866,1271.263613"/>
    <poly id="1042929293" type="building.garage" color="255,230,230" fill="1" layer="-1.00" shape="1179.018380,1272.373336 1177.841866,1271.263613 1179.790907,1269.196549 1183.860305,1273.037112 1181.917803,1275.092907 1179.018380,1272.373336"/>
    <poly id="1042929294" type="building.garage" color="255,230,230" fill="1" layer="-1.00" shape="1153.020436,1311.733284 1151.018162,1313.846014 1146.983612,1310.049238 1148.985885,1307.936507 1153.020436,1311.733284"/>
    <poly id="1042931001" type="building.garage" color="255,230,230" fill="1" layer="-1.00" shape="1194.383636,1290.403532 1192.300432,1288.434214 1188.554174,1292.375906 1190.644394,1294.356199 1194.383636,1290.403532"/>
    <poly id="1042931002" type="building.house" color="255,230,230" fill="1" layer="-1.00" shape="1210.391053,1302.032837 1206.391383,1298.279774 1198.883401,1306.074451 1202.952993,1309.926152 1210.391053,1302.032837"/>
    <poly id="1042931003" type="building.house" color="255,230,230" fill="1" layer="-1.00" shape="1194.938420,1302.342478 1202.329517,1294.472413 1206.391383,1298.279774 1198.883401,1306.074451 1194.938420,1302.342478"/>
    <poly id="1042931004" type="building.house" color="255,230,230" fill="1" layer="-1.00" shape="1210.391053,1302.032837 1214.480732,1305.872989 1212.824637,1307.688944 1209.059719,1311.708912 1207.098801,1313.854112 1202.952993,1309.926152 1210.391053,1302.032837"/>
    <poly id="1042931005" type="building.house" color="255,230,230" fill="1" layer="-1.00" shape="1235.016330,1325.350110 1230.995889,1321.575220 1223.616674,1329.367094 1227.636877,1333.130856 1235.016330,1325.350110"/>
    <poly id="1042931006" type="building.house" color="255,230,230" fill="1" layer="-1.00" shape="1230.995889,1321.575220 1226.934061,1317.767839 1219.561623,1325.559574 1223.616674,1329.367094 1230.995889,1321.575220"/>
    <poly id="1042931007" type="building.house" color="255,230,230" fill="1" layer="-1.00" shape="1226.934061,1317.767839 1222.761641,1313.862689 1221.203621,1315.509624 1217.431925,1319.529732 1215.409774,1321.665116 1219.561623,1325.559574 1226.934061,1317.767839"/>
    <poly id="1042931008" type="building.garage" color="255,230,230" fill="1" layer="-1.00" shape="1214.983329,1309.701159 1211.114602,1313.623208 1209.059719,1311.708912 1212.824637,1307.688944 1214.983329,1309.701159"/>
    <poly id="1042931009" type="building.garage" color="255,230,230" fill="1" layer="-1.00" shape="1213.231912,1315.602928 1217.024656,1311.615748 1219.155759,1313.606302 1215.300825,1317.539179 1213.231912,1315.602928"/>
    <poly id="1042931010" type="building.garage" color="255,230,230" fill="1" layer="-1.00" shape="1215.300825,1317.539179 1219.155759,1313.606302 1221.203621,1315.509624 1217.431925,1319.529732 1215.300825,1317.539179"/>
    <poly id="1042931011" type="building.garage" color="255,230,230" fill="1" layer="-1.00" shape="1243.398748,1304.595515 1241.267891,1302.616073 1237.409498,1306.704790 1239.463894,1308.596853 1243.398748,1304.595515"/>
    <poly id="1042931012" type="building.garage" color="255,230,230" fill="1" layer="-1.00" shape="1238.243184,1299.743375 1240.347889,1301.767887 1236.412558,1305.746982 1234.452324,1303.819517 1238.243184,1299.743375"/>
    <poly id="1042931013" type="building.garage" color="255,230,230" fill="1" layer="-1.00" shape="1217.533437,1280.370124 1219.616633,1282.339452 1215.817564,1286.349020 1213.727351,1284.368717 1217.533437,1280.370124"/>
    <poly id="1042931014" type="building.garage" color="255,230,230" fill="1" layer="-1.00" shape="1215.443223,1278.389819 1213.318644,1276.387999 1209.519574,1280.397572 1211.637377,1282.399536 1215.443223,1278.389819"/>