<?xml version="1.0" encoding="UTF-8"?>

<!-- generated on 2022-10-11 14:47:03.069089 by osmWebWizard.py v1_14_1+0000-f654d7b963e
<configuration>
    <allow-fringe.min-length value="1000.0"/>
    <end value="3600"/>
    <fringe-factor value="5.0"/>
    <fringe-start-attributes value="departSpeed=&quot;max&quot;"/>
    <lanes value="True"/>
    <min-distance value="300.0"/>
    <net-file value="C:\Users\adrianfi\Sumo\2022-10-11-14-46-30\osm.net.xml"/>
    <period value="6.41345080209823"/>
    <route-file value="C:\Users\adrianfi\Sumo\2022-10-11-14-46-30\osm.passenger.rou.xml"/>
    <trip-attributes value="departLane=&quot;best&quot;"/>
    <output-trip-file value="C:\Users\adrianfi\Sumo\2022-10-11-14-46-30\osm.passenger.trips.xml"/>
    <prefix value="veh"/>
    <validate value="True"/>
    <vehicle-class value="passenger"/>
</configuration>
-->

<!-- generated on 2022-10-11 14:47:02 by Eclipse SUMO duarouter Version 1.14.1
<configuration xmlns:xsi="http://www.w3.org/2001/XMLSchema-instance" xsi:noNamespaceSchemaLocation="http://sumo.dlr.de/xsd/duarouterConfiguration.xsd">

    <input>
        <net-file value="C:\Users\adrianfi\Sumo\2022-10-11-14-46-30\osm.net.xml"/>
        <route-files value="C:\Users\adrianfi\Sumo\2022-10-11-14-46-30\osm.passenger.trips.xml"/>
    </input>

    <output>
        <output-file value="C:\Users\adrianfi\Sumo\2022-10-11-14-46-30\osm.passenger.trips.xml.tmp"/>
        <alternatives-output value="NUL"/>
        <write-trips value="true"/>
    </output>

    <time>
        <begin value="0"/>
        <end value="3600"/>
    </time>

    <report>
        <no-warnings value="true"/>
        <ignore-errors value="true"/>
        <no-step-log value="true"/>
    </report>

</configuration>
-->

<routes xmlns:xsi="http://www.w3.org/2001/XMLSchema-instance" xsi:noNamespaceSchemaLocation="http://sumo.dlr.de/xsd/routes_file.xsd">
    <vType id="veh_passenger" vClass="passenger"/>
    <trip id="veh0" type="veh_passenger" depart="0.00" departLane="best" from="142062901#0" to="-141572982#1"/>
    <trip id="veh1" type="veh_passenger" depart="6.41" departLane="best" from="-45904959#0" to="-306737089#0"/>
    <trip id="veh2" type="veh_passenger" depart="12.83" departLane="best" from="306737089#1" to="28893400#5"/>
    <trip id="veh3" type="veh_passenger" depart="19.24" departLane="best" from="4783339#11" to="-142061516#0"/>
    <trip id="veh4" type="veh_passenger" depart="25.65" departLane="best" from="-604008286#0" to="-141574115#3"/>
    <trip id="veh5" type="veh_passenger" depart="32.07" departLane="best" from="-37835855#9" to="1100789319#2"/>
    <trip id="veh6" type="veh_passenger" depart="38.48" departLane="best" from="-119201851#0" to="-235047941#1"/>
    <trip id="veh7" type="veh_passenger" depart="44.89" departLane="best" from="142063347#3" to="141575940#3"/>
    <trip id="veh8" type="veh_passenger" depart="51.31" departLane="best" from="-37835856" to="142062866#2"/>
    <trip id="veh9" type="veh_passenger" depart="57.72" departLane="best" from="45904914#4" to="-1084263641#6"/>
    <trip id="veh10" type="veh_passenger" depart="64.13" departLane="best" from="45904914#10" to="37835090#5"/>
    <trip id="veh11" type="veh_passenger" depart="70.55" departLane="best" from="-4783339#13" to="-144480033#0"/>
    <trip id="veh12" type="veh_passenger" depart="76.96" departLane="best" from="618056549#5" to="-4684919#1"/>
    <trip id="veh13" type="veh_passenger" depart="83.37" departLane="best" from="4645562#6" to="142062901#7"/>
    <trip id="veh14" type="veh_passenger" depart="89.79" departLane="best" from="-4783372" to="141575941#4"/>
    <trip id="veh15" type="veh_passenger" depart="96.20" departLane="best" departSpeed="max" from="46115662#0" to="142064744#0"/>
    <trip id="veh16" type="veh_passenger" depart="102.62" departLane="best" departSpeed="max" from="4684924#0" to="142061820#5"/>
    <trip id="veh17" type="veh_passenger" depart="109.03" departLane="best" from="23008634#8" to="-141575940#3"/>
    <trip id="veh18" type="veh_passenger" depart="115.44" departLane="best" from="-142061516#2" to="-37835088#3"/>
    <trip id="veh19" type="veh_passenger" depart="121.86" departLane="best" from="-142062866#3" to="-443530114#0"/>
    <trip id="veh20" type="veh_passenger" depart="128.27" departLane="best" from="142062866#6" to="-4783339#0"/>
    <trip id="veh21" type="veh_passenger" depart="134.68" departLane="best" from="-4783342#2" to="-28893400#1"/>
    <trip id="veh22" type="veh_passenger" depart="141.10" departLane="best" from="-45904914#6" to="618056549#3"/>
    <trip id="veh23" type="veh_passenger" depart="147.51" departLane="best" from="-25706928#1" to="443530114#1"/>
    <trip id="veh24" type="veh_passenger" depart="153.92" departLane="best" from="-235047941#2" to="-4783339#7"/>
    <trip id="veh25" type="veh_passenger" depart="160.34" departLane="best" departSpeed="max" from="752226443" to="23008581#1"/>
    <trip id="veh26" type="veh_passenger" depart="166.75" departLane="best" from="141575941#4" to="328790102"/>
    <trip id="veh27" type="veh_passenger" depart="173.16" departLane="best" from="4645562#1" to="46124140"/>
    <trip id="veh28" type="veh_passenger" depart="179.58" departLane="best" from="-37837031#5" to="-141574115#5"/>
    <trip id="veh29" type="veh_passenger" depart="185.99" departLane="best" from="-4684965#2" to="-37837031#7"/>
    <trip id="veh30" type="veh_passenger" depart="192.40" departLane="best" from="-37835090#5" to="618056551#3"/>
    <trip id="veh31" type="veh_passenger" depart="198.82" departLane="best" from="4684965#3" to="-46115662#0"/>
    <trip id="veh32" type="veh_passenger" depart="205.23" departLane="best" from="142064614#4" to="-4783372"/>
    <trip id="veh33" type="veh_passenger" depart="211.64" departLane="best" from="4783361" to="-6181240#0"/>
    <trip id="veh34" type="veh_passenger" depart="218.06" departLane="best" from="-45904914#5" to="-37835855#6"/>
    <trip id="veh35" type="veh_passenger" depart="224.47" departLane="best" departSpeed="max" from="141575942#0" to="-37837031#4"/>
    <trip id="veh36" type="veh_passenger" depart="230.88" departLane="best" from="142059956#2" to="490157118#0"/>
    <trip id="veh37" type="veh_passenger" depart="237.30" departLane="best" from="-51218398#2" to="-306687127#1"/>
    <trip id="veh38" type="veh_passenger" depart="243.71" departLane="best" from="862881294#2" to="1100789319#2"/>
    <trip id="veh39" type="veh_passenger" depart="250.12" departLane="best" from="-142062099#1" to="-141575941#0"/>
    <trip id="veh40" type="veh_passenger" depart="256.54" departLane="best" from="-142062901#1" to="174392986#1"/>
    <trip id="veh41" type="veh_passenger" depart="262.95" departLane="best" from="443530114#0" to="-6007924#1"/>
    <trip id="veh42" type="veh_passenger" depart="269.36" departLane="best" from="-141577317#2" to="-4783339#9"/>
    <trip id="veh43" type="veh_passenger" depart="275.78" departLane="best" from="862881294#1" to="141574115#2"/>
    <trip id="veh44" type="veh_passenger" depart="282.19" departLane="best" from="6181242#0" to="4783339#6"/>
    <trip id="veh45" type="veh_passenger" depart="288.61" departLane="best" from="-1100789319#0" to="432205824#0"/>
    <trip id="veh46" type="veh_passenger" depart="295.02" departLane="best" departSpeed="max" from="22973168#0" to="141574115#6"/>
    <trip id="veh47" type="veh_passenger" depart="301.43" departLane="best" from="-45904914#6" to="23008634#1"/>
    <trip id="veh48" type="veh_passenger" depart="307.85" departLane="best" from="-142062901#3" to="-618056545#4"/>
    <trip id="veh49" type="veh_passenger" depart="314.26" departLane="best" from="4684965#2" to="-37837031#4"/>
    <trip id="veh50" type="veh_passenger" depart="320.67" departLane="best" from="4783342#2" to="4783341#3"/>
    <trip id="veh51" type="veh_passenger" depart="327.09" departLane="best" departSpeed="max" from="-466425810" to="23008581#0"/>
    <trip id="veh52" type="veh_passenger" depart="333.50" departLane="best" departSpeed="max" from="142061820#0" to="-144480033#0"/>
    <trip id="veh53" type="veh_passenger" depart="339.91" departLane="best" departSpeed="max" from="37837030#0" to="141575936#1"/>
    <trip id="veh54" type="veh_passenger" depart="346.33" departLane="best" from="37837031#6" to="141574115#4"/>
    <trip id="veh55" type="veh_passenger" depart="352.74" departLane="best" from="-1084263641#0" to="-4645562#0"/>
    <trip id="veh56" type="veh_passenger" depart="359.15" departLane="best" from="-119201835#0" to="618056545#5"/>
    <trip id="veh57" type="veh_passenger" depart="365.57" departLane="best" from="-4684924#4" to="-141575942#0"/>
    <trip id="veh58" type="veh_passenger" depart="371.98" departLane="best" from="4783336#0" to="618056551#7"/>
    <trip id="veh59" type="veh_passenger" depart="378.39" departLane="best" from="-142061820#3" to="-910534149"/>
    <trip id="veh60" type="veh_passenger" depart="384.81" departLane="best" departSpeed="max" from="-142059956#3" to="45904914#8"/>
    <trip id="veh61" type="veh_passenger" depart="391.22" departLane="best" departSpeed="max" from="37837030#0" to="-142062866#5"/>
    <trip id="veh62" type="veh_passenger" depart="397.63" departLane="best" from="-70163733#1" to="141575941#3"/>
    <trip id="veh63" type="veh_passenger" depart="404.05" departLane="best" from="-45904914#5" to="4783341#3"/>
    <trip id="veh64" type="veh_passenger" depart="410.46" departLane="best" from="-604008286#1" to="-28893400#4"/>
    <trip id="veh65" type="veh_passenger" depart="416.87" departLane="best" from="141575938#0" to="443530114#1"/>
    <trip id="veh66" type="veh_passenger" depart="423.29" departLane="best" from="-37835088#2" to="-46115660"/>
    <trip id="veh67" type="veh_passenger" depart="429.70" departLane="best" from="862881294#1" to="235047941#1"/>
    <trip id="veh68" type="veh_passenger" depart="436.11" departLane="best" from="-142063664#0" to="-306737089#0"/>
    <trip id="veh69" type="veh_passenger" depart="442.53" departLane="best" from="-4783339#11" to="142062866#10"/>
    <trip id="veh70" type="veh_passenger" depart="448.94" departLane="best" from="-37837031#5" to="-306737089#0"/>
    <trip id="veh71" type="veh_passenger" depart="455.36" departLane="best" departSpeed="max" from="4684924#0" to="-141577317#3"/>
    <trip id="veh72" type="veh_passenger" depart="461.77" departLane="best" from="-432205824#0" to="25706928#8"/>
    <trip id="veh73" type="veh_passenger" depart="468.18" departLane="best" from="-37835855#4" to="-142062901#0"/>
    <trip id="veh74" type="veh_passenger" depart="474.60" departLane="best" from="51218398#3" to="142061795#1"/>
    <trip id="veh75" type="veh_passenger" depart="481.01" departLane="best" from="-6967855#2" to="4645562#8"/>
    <trip id="veh76" type="veh_passenger" depart="487.42" departLane="best" from="45904914#2" to="-23008634#0"/>
    <trip id="veh77" type="veh_passenger" depart="493.84" departLane="best" from="-142062689#1" to="-618056545#0"/>
    <trip id="veh78" type="veh_passenger" depart="500.25" departLane="best" from="-618056545#0" to="-6967855#1"/>
    <trip id="veh79" type="veh_passenger" depart="506.66" departLane="best" from="306687127#1" to="28893400#1"/>
    <trip id="veh80" type="veh_passenger" depart="513.08" departLane="best" from="70163735#1" to="-142061795#0"/>
    <trip id="veh81" type="veh_passenger" depart="519.49" departLane="best" from="-51218398#3" to="-4684924#2"/>
    <trip id="veh82" type="veh_passenger" depart="525.90" departLane="best" departSpeed="max" from="4684924#0" to="-37835855#7"/>
    <trip id="veh83" type="veh_passenger" depart="532.32" departLane="best" from="-28893400#7" to="-618056551#5"/>
    <trip id="veh84" type="veh_passenger" depart="538.73" departLane="best" from="-604008286#0" to="-443530114#0"/>
    <trip id="veh85" type="veh_passenger" depart="545.14" departLane="best" from="-45393333" to="618056545#1"/>
    <trip id="veh86" type="veh_passenger" depart="551.56" departLane="best" from="912556071#0" to="4783336#4"/>
    <trip id="veh87" type="veh_passenger" depart="557.97" departLane="best" from="6181240#0" to="618056545#5"/>
    <trip id="veh88" type="veh_passenger" depart="564.38" departLane="best" from="4645562#7" to="-174392986#0"/>
    <trip id="veh89" type="veh_passenger" depart="570.80" departLane="best" departSpeed="max" from="-906787444#1" to="-28893400#7"/>
    <trip id="veh90" type="veh_passenger" depart="577.21" departLane="best" from="-51218398#2" to="-141575942#1"/>
    <trip id="veh91" type="veh_passenger" depart="583.62" departLane="best" from="-4783442#0" to="862881294#2"/>
    <trip id="veh92" type="veh_passenger" depart="590.04" departLane="best" from="-45904914#5" to="4645562#8"/>
    <trip id="veh93" type="veh_passenger" depart="596.45" departLane="best" departSpeed="max" from="-618056551#9" to="-6007924#2"/>
    <trip id="veh94" type="veh_passenger" depart="602.86" departLane="best" from="618056549#5" to="988846952"/>
    <trip id="veh95" type="veh_passenger" depart="609.28" departLane="best" from="141575941#3" to="432205822#0"/>
    <trip id="veh96" type="veh_passenger" depart="615.69" departLane="best" from="-23008634#1" to="-45904914#6"/>
    <trip id="veh97" type="veh_passenger" depart="622.10" departLane="best" from="6181240#0" to="142062099#1"/>
    <trip id="veh98" type="veh_passenger" depart="628.52" departLane="best" departSpeed="max" from="141575940#0" to="45869051#6"/>
    <trip id="veh99" type="veh_passenger" depart="634.93" departLane="best" from="-141575941#4" to="142062689#0"/>
    <trip id="veh100" type="veh_passenger" depart="641.35" departLane="best" from="1084263641#0" to="4783339#15"/>
    <trip id="veh101" type="veh_passenger" depart="647.76" departLane="best" from="-23008634#5" to="6181240#4"/>
    <trip id="veh102" type="veh_passenger" depart="654.17" departLane="best" from="-142061516#4" to="-23008634#0"/>
    <trip id="veh103" type="veh_passenger" depart="660.59" departLane="best" departSpeed="max" from="142061516#0" to="28893400#4"/>
    <trip id="veh104" type="veh_passenger" depart="667.00" departLane="best" from="-42990094#1" to="-142062689#0"/>
    <trip id="veh105" type="veh_passenger" depart="673.41" departLane="best" from="4783339#1" to="-37835855#5"/>
    <trip id="veh106" type="veh_passenger" depart="679.83" departLane="best" departSpeed="max" from="142061516#0" to="142064744#0"/>
    <trip id="veh107" type="veh_passenger" depart="686.24" departLane="best" from="-604008285#0" to="142062688"/>
    <trip id="veh108" type="veh_passenger" depart="692.65" departLane="best" from="-37835090#0" to="432205822#0"/>
    <trip id="veh109" type="veh_passenger" depart="699.07" departLane="best" from="-432205824#0" to="-4783372"/>
    <trip id="veh110" type="veh_passenger" depart="705.48" departLane="best" from="167410411#1" to="-45904914#9"/>
    <trip id="veh111" type="veh_passenger" depart="711.89" departLane="best" from="-4684965#3" to="45904914#10"/>
    <trip id="veh112" type="veh_passenger" depart="718.31" departLane="best" departSpeed="max" from="-142059956#3" to="-6180940"/>
    <trip id="veh113" type="veh_passenger" depart="724.72" departLane="best" from="906787444#0" to="988846952"/>
    <trip id="veh114" type="veh_passenger" depart="731.13" departLane="best" departSpeed="max" from="-142059956#3" to="-28893400#5"/>
    <trip id="veh115" type="veh_passenger" depart="737.55" departLane="best" from="-45904914#5" to="618056549#1"/>
    <trip id="veh116" type="veh_passenger" depart="743.96" departLane="best" from="4783336#2" to="4783361"/>
    <trip id="veh117" type="veh_passenger" depart="750.37" departLane="best" from="-4783342#1" to="-144480033#1"/>
    <trip id="veh118" type="veh_passenger" depart="756.79" departLane="best" departSpeed="max" from="46115662#0" to="37835855#5"/>
    <trip id="veh119" type="veh_passenger" depart="763.20" departLane="best" departSpeed="max" from="142061820#0" to="906787444#1"/>
    <trip id="veh120" type="veh_passenger" depart="769.61" departLane="best" from="142064614#2" to="-1091642556#0"/>
    <trip id="veh121" type="veh_passenger" depart="776.03" departLane="best" from="144480033#1" to="618056549#5"/>
    <trip id="veh122" type="veh_passenger" depart="782.44" departLane="best" departSpeed="max" from="-142064744#3" to="-142062099#2"/>
    <trip id="veh123" type="veh_passenger" depart="788.85" departLane="best" from="-142062866#9" to="141575942#1"/>
    <trip id="veh124" type="veh_passenger" depart="795.27" departLane="best" from="-45904921#1" to="142063347#0"/>
    <trip id="veh125" type="veh_passenger" depart="801.68" departLane="best" from="287934157" to="-25706928#4"/>
    <trip id="veh126" type="veh_passenger" depart="808.09" departLane="best" from="142062866#5" to="-37837031#4"/>
    <trip id="veh127" type="veh_passenger" depart="814.51" departLane="best" departSpeed="max" from="-906787444#1" to="51218398#2"/>
    <trip id="veh128" type="veh_passenger" depart="820.92" departLane="best" from="4645562#5" to="-142061516#4"/>
    <trip id="veh129" type="veh_passenger" depart="827.34" departLane="best" from="-618056545#0" to="-432205824#1"/>
    <trip id="veh130" type="veh_passenger" depart="833.75" departLane="best" from="142062866#7" to="-37837031#2"/>
    <trip id="veh131" type="veh_passenger" depart="840.16" departLane="best" from="37835088#1" to="141575941#4"/>
    <trip id="veh132" type="veh_passenger" depart="846.58" departLane="best" from="-618056545#4" to="-1091642556#1"/>
    <trip id="veh133" type="veh_passenger" depart="852.99" departLane="best" from="-142061202#1" to="4783366#2"/>
    <trip id="veh134" type="veh_passenger" depart="859.40" departLane="best" from="4783339#7" to="141575940#3"/>
    <trip id="veh135" type="veh_passenger" depart="865.82" departLane="best" departSpeed="max" from="46115662#0" to="142062099#3"/>
    <trip id="veh136" type="veh_passenger" depart="872.23" departLane="best" from="-23008568#2" to="-142062866#5"/>
    <trip id="veh137" type="veh_passenger" depart="878.64" departLane="best" from="-4684924#5" to="490157118#1"/>
    <trip id="veh138" type="veh_passenger" depart="885.06" departLane="best" from="45869051#1" to="4783339#6"/>
    <trip id="veh139" type="veh_passenger" depart="891.47" departLane="best" from="4783339#3" to="-28893400#10"/>
    <trip id="veh140" type="veh_passenger" depart="897.88" departLane="best" from="-45393333" to="-142061820#0"/>
    <trip id="veh141" type="veh_passenger" depart="904.30" departLane="best" from="42990094#1" to="4783366#3"/>
    <trip id="veh142" type="veh_passenger" depart="910.71" departLane="best" from="-51218398#5" to="142064744#0"/>
    <trip id="veh143" type="veh_passenger" depart="917.12" departLane="best" from="-23008634#1" to="618056545#5"/>
    <trip id="veh144" type="veh_passenger" depart="923.54" departLane="best" from="45904914#6" to="4783366#1"/>
    <trip id="veh145" type="veh_passenger" depart="929.95" departLane="best" from="-119201848#2" to="443530114#1"/>
    <trip id="veh146" type="veh_passenger" depart="936.36" departLane="best" from="45904914#0" to="4783339#8"/>
    <trip id="veh147" type="veh_passenger" depart="942.78" departLane="best" from="432205824#1" to="-142061820#2"/>
    <trip id="veh148" type="veh_passenger" depart="949.19" departLane="best" from="4684925#2" to="4783339#4"/>
    <trip id="veh149" type="veh_passenger" depart="955.60" departLane="best" from="-37837031#0" to="4684926#2"/>
    <trip id="veh150" type="veh_passenger" depart="962.02" departLane="best" departSpeed="max" from="-6181240#4" to="-45904959#0"/>
    <trip id="veh151" type="veh_passenger" depart="968.43" departLane="best" from="45869051#0" to="-328790102"/>
    <trip id="veh152" type="veh_passenger" depart="974.84" departLane="best" from="-119201848#1" to="-23008634#5"/>
    <trip id="veh153" type="veh_passenger" depart="981.26" departLane="best" from="618056551#8" to="-443530114#0"/>
    <trip id="veh154" type="veh_passenger" depart="987.67" departLane="best" from="142062901#3" to="-490157117"/>
    <trip id="veh155" type="veh_passenger" depart="994.08" departLane="best" from="70163733#1" to="141574115#6"/>
    <trip id="veh156" type="veh_passenger" depart="1000.50" departLane="best" from="6007924#1" to="-142062099#2"/>
    <trip id="veh157" type="veh_passenger" depart="1006.91" departLane="best" from="6181240#1" to="-23008568#2"/>
    <trip id="veh158" type="veh_passenger" depart="1013.33" departLane="best" from="618056551#5" to="-37837031#5"/>
    <trip id="veh159" type="veh_passenger" depart="1019.74" departLane="best" from="-142062901#0" to="-618056545#4"/>
    <trip id="veh160" type="veh_passenger" depart="1026.15" departLane="best" from="306687127#1" to="-46115662#0"/>
    <trip id="veh161" type="veh_passenger" depart="1032.57" departLane="best" from="142061795#1" to="119201835#0"/>
    <trip id="veh162" type="veh_passenger" depart="1038.98" departLane="best" departSpeed="max" from="-4783442#1" to="142061820#5"/>
    <trip id="veh163" type="veh_passenger" depart="1045.39" departLane="best" from="-45869051#4" to="37837031#2"/>
    <trip id="veh164" type="veh_passenger" depart="1051.81" departLane="best" from="-1084263641#1" to="618056545#4"/>
    <trip id="veh165" type="veh_passenger" depart="1058.22" departLane="best" from="141575936#1" to="432205824#0"/>
    <trip id="veh166" type="veh_passenger" depart="1064.63" departLane="best" from="37835088#2" to="287934157"/>
    <trip id="veh167" type="veh_passenger" depart="1071.05" departLane="best" departSpeed="max" from="-4783341#4" to="-141577317#2"/>
    <trip id="veh168" type="veh_passenger" depart="1077.46" departLane="best" from="144480033#2" to="-4645562#5"/>
    <trip id="veh169" type="veh_passenger" depart="1083.87" departLane="best" from="-4684965#1" to="4783339#13"/>
    <trip id="veh170" type="veh_passenger" depart="1090.29" departLane="best" from="-4684924#5" to="-51218397#1"/>
    <trip id="veh171" type="veh_passenger" depart="1096.70" departLane="best" from="-51218398#3" to="-45904914#5"/>
    <trip id="veh172" type="veh_passenger" depart="1103.11" departLane="best" from="6007924#2" to="28893400#7"/>
    <trip id="veh173" type="veh_passenger" depart="1109.53" departLane="best" from="4783339#6" to="142064744#0"/>
    <trip id="veh174" type="veh_passenger" depart="1115.94" departLane="best" departSpeed="max" from="-466425811" to="141575941#1"/>
    <trip id="veh175" type="veh_passenger" depart="1122.35" departLane="best" departSpeed="max" from="-618056545#5" to="142062099#1"/>
    <trip id="veh176" type="veh_passenger" depart="1128.77" departLane="best" from="142064614#3" to="-6967855#0"/>
    <trip id="veh177" type="veh_passenger" depart="1135.18" departLane="best" from="-618056551#1" to="-28893400#7"/>
    <trip id="veh178" type="veh_passenger" depart="1141.59" departLane="best" from="-6967855#2" to="51218397#0"/>
    <trip id="veh179" type="veh_passenger" depart="1148.01" departLane="best" from="45869051#0" to="-179131760"/>
    <trip id="veh180" type="veh_passenger" depart="1154.42" departLane="best" from="-142061820#2" to="119201848#0"/>
    <trip id="veh181" type="veh_passenger" depart="1160.83" departLane="best" from="142062866#4" to="-4645562#9"/>
    <trip id="veh183" type="veh_passenger" depart="1173.66" departLane="best" from="-37835088#1" to="-141572982#1"/>
    <trip id="veh184" type="veh_passenger" depart="1180.07" departLane="best" departSpeed="max" from="-443530114#1" to="-752226443"/>
    <trip id="veh185" type="veh_passenger" depart="1186.49" departLane="best" from="4645562#8" to="-142059956#0"/>
    <trip id="veh186" type="veh_passenger" depart="1192.90" departLane="best" departSpeed="max" from="-6007924#2" to="179131760"/>
    <trip id="veh187" type="veh_passenger" depart="1199.32" departLane="best" from="-986535232" to="-37835855#4"/>
    <trip id="veh188" type="veh_passenger" depart="1205.73" departLane="best" from="142064614#4" to="-1084263641#5"/>
    <trip id="veh189" type="veh_passenger" depart="1212.14" departLane="best" from="37835090#4" to="46115662#1"/>
    <trip id="veh190" type="veh_passenger" depart="1218.56" departLane="best" from="-142062866#7" to="-604008284"/>
    <trip id="veh191" type="veh_passenger" depart="1224.97" departLane="best" from="119201835#1" to="-141575941#3"/>
    <trip id="veh192" type="veh_passenger" depart="1231.38" departLane="best" from="-45393333" to="4783339#14"/>
    <trip id="veh193" type="veh_passenger" depart="1237.80" departLane="best" departSpeed="max" from="-618056551#9" to="4684910#2"/>
    <trip id="veh194" type="veh_passenger" depart="1244.21" departLane="best" departSpeed="max" from="167410411#0" to="906787444#1"/>
    <trip id="veh195" type="veh_passenger" depart="1250.62" departLane="best" departSpeed="max" from="142061516#0" to="618056551#9"/>
    <trip id="veh196" type="veh_passenger" depart="1257.04" departLane="best" from="4783339#10" to="142064614#2"/>
    <trip id="veh197" type="veh_passenger" depart="1263.45" departLane="best" from="28893400#0" to="1100789319#1"/>
    <trip id="veh198" type="veh_passenger" depart="1269.86" departLane="best" departSpeed="max" from="46115662#0" to="141575941#1"/>
    <trip id="veh199" type="veh_passenger" depart="1276.28" departLane="best" from="4783339#2" to="45869051#1"/>
    <trip id="veh200" type="veh_passenger" depart="1282.69" departLane="best" from="-70163733#1" to="-37837031#0"/>
    <trip id="veh201" type="veh_passenger" depart="1289.10" departLane="best" departSpeed="max" from="-443530114#1" to="23008568#4"/>
    <trip id="veh202" type="veh_passenger" depart="1295.52" departLane="best" departSpeed="max" from="37837030#0" to="119201851#0"/>
    <trip id="veh203" type="veh_passenger" depart="1301.93" departLane="best" from="142062689#1" to="-432205824#0"/>
    <trip id="veh204" type="veh_passenger" depart="1308.34" departLane="best" from="141575938#1" to="-142062901#7"/>
    <trip id="veh205" type="veh_passenger" depart="1314.76" departLane="best" from="-37837031#7" to="37835090#1"/>
    <trip id="veh206" type="veh_passenger" depart="1321.17" departLane="best" from="23008661#1" to="-141577317#0"/>
    <trip id="veh207" type="veh_passenger" depart="1327.58" departLane="best" from="-549424069#0" to="141575940#1"/>
    <trip id="veh208" type="veh_passenger" depart="1334.00" departLane="best" departSpeed="max" from="-6007924#2" to="-287934157"/>
    <trip id="veh209" type="veh_passenger" depart="1340.41" departLane="best" from="-604008285#0" to="51218398#2"/>
    <trip id="veh210" type="veh_passenger" depart="1346.82" departLane="best" from="142059956#2" to="37835090#3"/>
    <trip id="veh211" type="veh_passenger" depart="1353.24" departLane="best" from="4684913#2" to="45904921#2"/>
    <trip id="veh212" type="veh_passenger" depart="1359.65" departLane="best" departSpeed="max" from="-4783442#1" to="-1084263641#5"/>
    <trip id="veh213" type="veh_passenger" depart="1366.07" departLane="best" from="-4783339#4" to="45904914#11"/>
    <trip id="veh214" type="veh_passenger" depart="1372.48" departLane="best" from="4684910#1" to="618056551#9"/>
    <trip id="veh215" type="veh_passenger" depart="1378.89" departLane="best" from="-604008285#0" to="45869051#5"/>
    <trip id="veh216" type="veh_passenger" depart="1385.31" departLane="best" departSpeed="max" from="141575940#0" to="142062901#7"/>
    <trip id="veh217" type="veh_passenger" depart="1391.72" departLane="best" from="-37835856" to="-306687127#1"/>
    <trip id="veh218" type="veh_passenger" depart="1398.13" departLane="best" from="-618056549#1" to="-141574115#2"/>
    <trip id="veh219" type="veh_passenger" depart="1404.55" departLane="best" from="-4783339#1" to="30135002#0"/>
    <trip id="veh220" type="veh_passenger" depart="1410.96" departLane="best" from="-51218398#5" to="-167410411#1"/>
    <trip id="veh221" type="veh_passenger" depart="1417.37" departLane="best" from="-6181242#1" to="-142062866#5"/>
    <trip id="veh222" type="veh_passenger" depart="1423.79" departLane="best" from="142062099#2" to="-141574115#1"/>
    <trip id="veh223" type="veh_passenger" depart="1430.20" departLane="best" from="-51218397#0" to="142061202#1"/>
    <trip id="veh224" type="veh_passenger" depart="1436.61" departLane="best" from="-119201851#1" to="23008634#2"/>
    <trip id="veh225" type="veh_passenger" depart="1443.03" departLane="best" departSpeed="max" from="-142064744#3" to="-6181242#0"/>
    <trip id="veh226" type="veh_passenger" depart="1449.44" departLane="best" from="-141575940#2" to="-4783339#7"/>
    <trip id="veh227" type="veh_passenger" depart="1455.85" departLane="best" from="-37835855#2" to="-4645562#1"/>
    <trip id="veh228" type="veh_passenger" depart="1462.27" departLane="best" from="37835856" to="-4783339#7"/>
    <trip id="veh229" type="veh_passenger" depart="1468.68" departLane="best" from="37835090#5" to="4783336#1"/>
    <trip id="veh230" type="veh_passenger" depart="1475.09" departLane="best" from="-45869051#1" to="-142061202#1"/>
    <trip id="veh231" type="veh_passenger" depart="1481.51" departLane="best" departSpeed="max" from="-1100789319#2" to="141575936#1"/>
    <trip id="veh232" type="veh_passenger" depart="1487.92" departLane="best" from="142063347#3" to="4645562#5"/>
    <trip id="veh233" type="veh_passenger" depart="1494.33" departLane="best" from="142064614#0" to="45904914#2"/>
    <trip id="veh234" type="veh_passenger" depart="1500.75" departLane="best" from="618056545#4" to="-235047941#2"/>
    <trip id="veh235" type="veh_passenger" depart="1507.16" departLane="best" from="-119201835#0" to="-144480033#0"/>
    <trip id="veh236" type="veh_passenger" depart="1513.57" departLane="best" departSpeed="max" from="-142064744#3" to="25706928#8"/>
    <trip id="veh237" type="veh_passenger" depart="1519.99" departLane="best" from="141575942#1" to="-306687127#0"/>
    <trip id="veh238" type="veh_passenger" depart="1526.40" departLane="best" departSpeed="max" from="23008634#0" to="45904959#0"/>