<?xml version="1.0" encoding="UTF-8"?>

<!-- generated on 2022-10-26 15:59:16 by Eclipse SUMO polyconvert Version 1.14.1
<configuration xmlns:xsi="http://www.w3.org/2001/XMLSchema-instance" xsi:noNamespaceSchemaLocation="http://sumo.dlr.de/xsd/polyconvertConfiguration.xsd">

    <input>
        <net-file value="osm.net.xml"/>
        <osm-files value="osm_bbox.osm.xml.gz"/>
        <osm.keep-full-type value="true"/>
        <type-file value="C:\Program%20Files%20(x86)\Eclipse\Sumo\data\typemap\osmPolyconvert.typ.xml"/>
    </input>

    <output>
        <output-file value="osm.poly.xml"/>
    </output>

    <report>
        <verbose value="true"/>
    </report>

</configuration>
-->

<additional xmlns:xsi="http://www.w3.org/2001/XMLSchema-instance" xsi:noNamespaceSchemaLocation="http://sumo.dlr.de/xsd/additional_file.xsd">
    <location netOffset="-623939.96,-4857289.10" convBoundary="-591.04,-1126.07,2420.27,3454.39" origBoundary="-79.464468,43.848142,-79.427428,43.889184" projParameter="+proj=utm +zone=17 +ellps=WGS84 +datum=WGS84 +units=m +no_defs"/>

    <poly id="1098400206" type="building.yes" color="255,230,230" fill="1" layer="-1.00" shape="1536.691984,1506.881536 1539.536033,1497.591206 1528.674154,1493.919453 1526.048826,1502.269513 1531.759719,1504.177339 1531.466600,1505.227314 1536.691984,1506.881536"/>
    <poly id="1098400207" type="building.yes" color="255,230,230" fill="1" layer="-1.00" shape="1492.237146,1493.608898 1497.747814,1495.479580 1498.183814,1494.098983 1501.637233,1495.097510 1502.755252,1491.652103 1506.046297,1492.736450 1507.715473,1487.345978 1495.392208,1483.168917 1492.237146,1493.608898"/>
    <poly id="1098400208" type="building.yes" color="255,230,230" fill="1" layer="-1.00" shape="1474.245955,1469.925613 1469.151457,1468.573901 1472.352072,1456.145962 1488.922276,1460.592071 1484.621704,1477.210168 1473.087064,1474.259105 1474.245955,1469.925613"/>
    <poly id="1098400209" type="building.yes" color="255,230,230" fill="1" layer="-1.00" shape="1459.750798,1451.363745 1460.072836,1450.058768 1468.499158,1452.040034 1465.789465,1462.732871 1451.331715,1459.215559 1453.422059,1449.822080 1459.750798,1451.363745"/>
    <poly id="1098400211" type="building.yes" color="255,230,230" fill="1" layer="-1.00" shape="1403.916585,1518.440210 1408.032435,1494.563325 1397.873635,1492.816091 1393.713595,1516.481045 1403.916585,1518.440210"/>
    <poly id="1098400212" type="building.yes" color="255,230,230" fill="1" layer="-1.00" shape="1415.564587,1470.673153 1416.618155,1465.104381 1414.976042,1464.806728 1416.912350,1453.777066 1410.199886,1452.550408 1410.044007,1453.569646 1405.181098,1452.722335 1403.308600,1463.353220 1409.918696,1464.466833 1409.066566,1469.583871 1415.564587,1470.673153"/>
    <poly id="1098400213" type="building.yes" color="255,230,230" fill="1" layer="-1.00" shape="1421.578186,1434.832590 1422.681020,1429.209195 1411.647298,1426.967671 1410.576403,1432.602781 1421.578186,1434.832590"/>
    <poly id="121760967" type="leisure.playground" color="207,245,201" fill="1" layer="-2.00" shape="1270.000336,1127.119214 1254.106253,1136.219194 1251.880490,1136.177239 1247.486694,1133.883402 1245.007157,1128.114688 1245.257911,1124.619564 1246.209600,1123.170897 1262.476883,1113.889053 1265.782758,1115.051326 1269.412817,1118.630721 1270.282511,1121.958087 1270.000336,1127.119214"/>
    <poly id="121761336" type="building.yes" color="255,230,230" fill="1" layer="-1.00" shape="1430.870679,1040.490996 1427.512539,1034.005654 1419.642142,1026.390747 1412.022292,1023.813702 1414.450657,1014.826577 1411.557704,1013.505364 1413.178059,1009.425006 1416.453079,1010.520107 1421.090011,995.674915 1424.561032,996.607060 1428.400584,986.957715 1438.342231,986.623173 1444.272482,995.245876 1447.257262,994.257822 1453.038080,1007.388635 1454.794764,1006.732940 1455.389586,1008.010784 1459.867191,1018.639326 1455.930814,1031.286701 1438.979354,1037.610852 1430.870679,1040.490996"/>
    <poly id="133649038" type="leisure.pitch" color="207,245,201" fill="1" layer="-2.00" shape="763.732037,1501.510220 817.993132,1517.817578 807.073433,1554.433027 785.860262,1563.956349 747.131532,1553.029519 763.732037,1501.510220"/>
    <poly id="133649038#1" type="sport.baseball" color="79,230,125" fill="1" layer="-2.00" shape="763.732037,1501.510220 817.993132,1517.817578 807.073433,1554.433027 785.860262,1563.956349 747.131532,1553.029519 763.732037,1501.510220"/>
    <poly id="145818716" type="amenity.parking" color="184,184,179" fill="1" layer="-1.00" shape="876.245571,1129.707284 872.906256,1124.333656 890.358447,1113.562145 893.697755,1118.935782 876.245571,1129.707284"/>
    <poly id="145818717" type="amenity.parking" color="184,184,179" fill="1" layer="-1.00" shape="1063.818695,1152.967464 1066.817389,1146.535299 1048.266674,1137.930973 1045.267787,1144.374253 1063.818695,1152.967464"/>
    <poly id="145818718" type="amenity.parking" color="184,184,179" fill="1" layer="-1.00" shape="894.654455,1099.254645 898.067436,1084.030590 891.559577,1082.586108 888.146611,1097.810166 894.654455,1099.254645"/>
    <poly id="148799890" type="amenity.parking" color="184,184,179" fill="1" layer="-1.00" shape="1470.960406,1298.292802 1450.360042,1291.437426 1456.109595,1274.280026 1471.262385,1279.321506 1469.703459,1283.980764 1475.151079,1285.794676 1470.960406,1298.292802"/>
    <poly id="148799891" type="amenity.parking" color="184,184,179" fill="1" layer="-1.00" shape="1470.173967,1277.367699 1472.045713,1271.892159 1481.765265,1275.208910 1485.746138,1263.606791 1469.956595,1258.231047 1468.127540,1263.574065 1427.435695,1249.717463 1423.412436,1261.441031 1470.173967,1277.367699"/>
    <poly id="148799893" type="amenity.parking" color="184,184,179" fill="1" layer="-1.00" shape="1486.647475,1257.590727 1488.952527,1245.345875 1478.956368,1243.479387 1479.984231,1237.999023 1431.805566,1229.000814 1429.410830,1241.743968 1431.205037,1242.077825 1430.266792,1247.071017 1486.647475,1257.590727"/>
    <poly id="148799894" type="amenity.parking" color="184,184,179" fill="1" layer="-1.00" shape="1434.288334,1286.534196 1436.084796,1281.212775 1439.687018,1282.425177 1443.671168,1270.645326 1422.752223,1263.628477 1421.253767,1268.066675 1418.050773,1266.995147 1413.776704,1279.658390 1434.288334,1286.534196"/>
    <poly id="148800135" type="building.yes" color="255,230,230" fill="1" layer="-1.00" shape="1694.510049,1356.993585 1674.450726,1353.425381 1675.241207,1349.029397 1673.094339,1348.644359 1674.766364,1339.287469 1678.491510,1339.946794 1681.386141,1323.746637 1691.888339,1325.623009 1691.519614,1327.693729 1699.498546,1329.111287 1694.510049,1356.993585"/>
    <poly id="157801869" type="landuse.grass" color="194,194,130" fill="1" layer="-3.00" shape="1631.334233,825.453533 1716.355348,852.338146 1733.939949,756.508040 1725.836386,753.143746 1661.820351,733.411493 1631.334233,825.453533"/>
    <poly id="160117104" type="building.school" color="255,230,230" fill="1" layer="-1.00" shape="710.688613,1351.798881 714.604525,1339.728488 711.089143,1338.595888 712.437055,1334.443599 719.435681,1336.708200 720.553103,1333.273776 738.337665,1339.007385 752.862485,1343.690994 747.334267,1360.719760 761.363577,1365.249648 767.938806,1367.373025 768.314243,1366.213461 770.527411,1366.921657 771.483223,1363.961962 777.515201,1365.908488 826.202501,1381.611218 832.165941,1363.246303 838.137655,1344.870438 853.924831,1349.955749 848.925410,1365.350006 883.654850,1376.568870 887.330049,1377.749010 894.829104,1354.668774 856.823586,1342.410559 857.821701,1339.340564 874.083010,1289.259511 864.815364,1286.263249 865.574316,1283.944282 851.065294,1279.271837 850.391289,1281.347968 843.072910,1278.988337 841.323677,1284.388561 830.037262,1319.108283 827.991983,1318.447664 825.954531,1317.798303 826.423582,1316.362735 812.250410,1311.785567 777.584898,1300.134982 773.150481,1298.718436 774.289330,1295.428860 787.506996,1257.156597 777.722304,1253.439670 779.189438,1248.934093 769.945385,1245.960631 766.012422,1258.075118 758.198734,1255.550733 756.544855,1255.019703 760.366881,1243.247557 743.117508,1237.679496 740.720149,1245.067485 731.212586,1242.000246 724.558468,1262.485513 732.460128,1265.033730 730.005485,1271.620684 723.131052,1294.423933 715.787486,1316.529525 713.453097,1323.563165 704.233230,1320.590245 700.923041,1330.794319 710.142895,1333.767235 708.829209,1337.809060 701.407019,1335.414304 697.474017,1347.539936 710.688613,1351.798881"/>
    <poly id="170992815" type="building.apartments" color="255,230,230" fill="1" layer="-1.00" shape="1812.160296,971.946583 1764.084411,956.581561 1764.298330,955.896748 1755.353664,952.816476 1755.651883,951.499950 1753.667588,951.862383 1751.775159,951.193263 1750.461607,949.668465 1750.097034,947.694978 1750.767778,945.807747 1750.055562,945.638720 1761.898764,880.509901 1783.934980,884.182394 1782.650088,891.335565 1776.037784,928.108939 1774.635774,927.860190 1773.253793,934.622652 1774.709554,937.127884 1780.248093,938.821540 1780.543794,937.638296 1801.523905,944.435186 1819.308288,950.193896 1812.160296,971.946583"/>
    <poly id="170992950" type="building.retail" color="255,230,230" fill="1" layer="-1.00" shape="1681.962441,609.008595 1691.242591,610.528490 1695.719989,583.336508 1686.439802,581.816608 1681.962441,609.008595"/>
    <poly id="170992951" type="building.retail" color="255,230,230" fill="1" layer="-1.00" shape="1719.676051,610.510768 1750.234844,616.277593 1753.021553,601.553143 1745.564081,600.145423 1748.840254,582.919224 1731.073718,579.560987 1727.538495,598.160014 1722.211634,597.159279 1719.676051,610.510768"/>
    <poly id="170992965" type="landuse.retail" color="194,194,130" fill="1" layer="-3.00" shape="1670.795089,629.918773 1754.569792,657.802385 1772.168374,579.971907 1683.176104,556.733690 1670.795089,629.918773"/>
    <poly id="170993133" type="landuse.retail" color="194,194,130" fill="1" layer="-3.00" shape="1733.939949,756.508040 1748.470297,671.297532 1670.050528,646.337354 1655.961275,730.378604 1661.820351,733.411493 1725.836386,753.143746 1733.939949,756.508040"/>
    <poly id="170993340" type="amenity.parking" color="184,184,179" fill="1" layer="-1.00" shape="1623.614137,906.837592 1617.468095,891.777575 1618.391742,880.762153 1633.844461,837.667158 1651.964492,842.276240 1648.119844,856.425190 1641.733002,854.526728 1634.855436,878.584602 1635.328493,891.404135 1632.580824,904.507208 1623.614137,906.837592"/>
    <poly id="170993341" type="amenity.parking" color="184,184,179" fill="1" layer="-1.00" shape="1663.051553,911.460861 1642.803131,905.067125 1644.546329,899.600308 1664.794557,906.005156 1663.051553,911.460861"/>
    <poly id="170997204" type="leisure.playground" color="207,245,201" fill="1" layer="-2.00" shape="855.779227,1177.264984 853.214653,1183.705393 848.617186,1190.107607 842.920250,1190.000568 849.278447,1176.731743 855.779227,1177.264984"/>
    <poly id="170997242" type="landuse.grass" color="194,194,130" fill="1" layer="-3.00" shape="1610.123235,1440.183228 1632.654043,1275.193607 1627.934351,1267.615782 1494.730380,1242.444010 1485.440347,1277.244901 1527.598527,1299.840328 1526.952290,1303.839068 1540.538130,1308.851107 1556.006605,1319.298532 1527.373840,1413.842567 1610.123235,1440.183228"/>
    <poly id="185916476" type="building.yes" color="255,230,230" fill="1" layer="-1.00" shape="1718.743025,1222.812941 1722.194156,1206.945538 1710.066047,1204.327281 1706.622979,1220.194843 1718.743025,1222.812941"/>
    <poly id="185917557" type="building.yes" color="255,230,230" fill="1" layer="-1.00" shape="1748.943710,1055.791063 1752.198925,1045.186423 1735.039667,1039.961913 1732.032214,1049.793502 1739.424993,1052.044414 1739.185292,1052.817625 1748.943710,1055.791063"/>
    <poly id="185917728" type="building.yes" color="255,230,230" fill="1" layer="-1.00" shape="1736.758789,1009.006790 1740.418004,988.521296 1745.662442,985.365109 1756.726644,987.729955 1752.618381,1009.429119 1747.071957,1008.579745 1746.718902,1011.095185 1736.758789,1009.006790"/>
    <poly id="185930827" type="natural.wood" color="140,196,107" fill="1" layer="-4.00" shape="528.507120,1146.191380 543.458408,1149.593672 539.797222,1161.380053 530.827390,1189.655056 528.389135,1207.386307 498.592530,1251.136988 479.837019,1294.205782 461.267452,1361.688072 448.568652,1386.960126 437.486810,1420.317663 455.665698,1444.045949 438.653714,1508.646495 442.914413,1532.636291 406.672991,1518.902641 398.251121,1512.811895 352.408722,1505.298492 337.243635,1504.770241 315.569764,1497.709431 301.141989,1496.006227 278.674033,1481.119945 256.077075,1448.198861 248.217044,1400.876357 239.170406,1365.853312 211.051367,1361.283340 174.506954,1340.034603 190.206218,1229.433404 244.844678,1268.297455 279.849980,1211.121552 265.037492,1186.545693 284.517245,1179.899246 326.869599,1244.755147 321.124166,1213.304703 350.119620,1215.313866 355.006349,1204.594724 465.847566,1188.837546 480.323815,1194.852899 495.339649,1195.234214 512.559595,1179.224302 514.735663,1177.198509 516.942573,1172.240098 528.507120,1146.191380"/>
    <poly id="185930873" type="building.yes" color="255,230,230" fill="1" layer="-1.00" shape="1730.681866,1232.882894 1735.338178,1206.849815 1728.288242,1205.605347 1723.632167,1231.627324 1730.681866,1232.882894"/>
    <poly id="185930874" type="amenity.social_facility" color="237,199,199" fill="1" layer="-1.00" shape="1723.896894,1267.764235 1689.090711,1256.383949 1691.623998,1248.665511 1697.215806,1250.504555 1704.310968,1228.961864 1722.149424,1234.799142 1717.739934,1248.215176 1729.115748,1251.930282 1723.896894,1267.764235"/>
    <poly id="185930874#1" type="building.yes" color="255,230,230" fill="1" layer="-1.00" shape="1723.896894,1267.764235 1689.090711,1256.383949 1691.623998,1248.665511 1697.215806,1250.504555 1704.310968,1228.961864 1722.149424,1234.799142 1717.739934,1248.215176 1729.115748,1251.930282 1723.896894,1267.764235"/>
    <poly id="185931237" type="building.house" color="255,230,230" fill="1" layer="-1.00" shape="948.148072,867.981782 944.095166,863.361339 938.611421,868.146908 930.048923,858.397473 940.754691,849.065839 953.362266,863.424476 948.148072,867.981782"/>
    <poly id="196193816" type="amenity.school" color="237,199,199" fill="1" layer="-2.00" shape="623.250715,1443.220703 705.933592,1194.872336 739.963283,1204.032918 768.618506,1211.748374 859.182184,1239.137270 974.249848,1273.521315 896.157531,1528.152751 623.250715,1443.220703"/>
    <poly id="255956685" type="leisure.pitch" color="207,245,201" fill="1" layer="-2.00" shape="872.468667,1452.566360 887.525641,1457.571376 896.254712,1431.481063 881.205718,1426.476179 872.468667,1452.566360"/>
    <poly id="255956685#1" type="sport.beachvolleyball" color="79,230,125" fill="1" layer="-2.00" shape="872.468667,1452.566360 887.525641,1457.571376 896.254712,1431.481063 881.205718,1426.476179 872.468667,1452.566360"/>
    <poly id="26236139" type="building.hospital" color="255,230,230" fill="1" layer="-1.00" shape="578.941633,1386.492331 581.309006,1378.548199 585.812278,1364.288854 573.286353,1360.165287 583.904847,1327.554783 561.606594,1320.337040 562.427803,1317.263689 556.687398,1315.622815 560.786355,1302.778032 573.661235,1306.730343 575.297184,1305.216641 578.693120,1306.291376 576.411179,1311.392798 591.436172,1315.129914 591.914947,1310.172454 594.281858,1310.827920 602.422345,1282.637435 570.058866,1273.364348 589.152775,1216.569433 592.451708,1217.675686 596.084935,1206.955424 635.887097,1220.767949 640.448455,1208.565186 603.169924,1195.622144 606.368116,1184.527079 587.961201,1178.948835 586.555221,1183.200052 548.272178,1170.660697 544.187166,1185.761198 548.043587,1187.144532 547.946581,1188.031561 580.996362,1198.450670 557.983894,1267.471576 535.084654,1255.853982 544.945524,1237.073021 530.987498,1228.289586 519.706366,1249.943814 528.209620,1255.136269 523.931137,1264.266768 538.769871,1271.944529 526.220210,1306.818797 532.035900,1309.161023 520.853405,1345.716402 502.205542,1340.578288 494.463060,1363.854344 489.840213,1378.500373 485.718742,1377.112103 469.147005,1427.199286 488.108627,1432.309864 484.989783,1442.617613 509.074675,1450.124138 513.135295,1437.600818 525.736416,1441.136824 528.699874,1429.259585 529.768267,1424.146514 540.879499,1427.410191 542.165677,1422.256761 555.919464,1426.047752 559.768768,1415.798169 555.286302,1414.803068 562.563330,1393.640474 549.284456,1389.380618 552.358874,1379.305385 578.941633,1386.492331"/>
    <poly id="264025557" type="amenity.parking" color="184,184,179" fill="1" layer="-1.00" shape="1737.558259,1271.755927 1742.513404,1240.550933 1733.008537,1239.060010 1728.061681,1270.254055 1737.558259,1271.755927"/>
    <poly id="264025558" type="amenity.parking" color="184,184,179" fill="1" layer="-1.00" shape="1665.442240,1363.521255 1698.609182,1373.148273 1699.461184,1366.775756 1703.821285,1367.435998 1708.829389,1333.420985 1701.716145,1332.130900 1696.678800,1360.045605 1668.109225,1353.405434 1665.442240,1363.521255"/>
    <poly id="264025559" type="amenity.parking" color="184,184,179" fill="1" layer="-1.00" shape="1662.551788,1346.778363 1665.418230,1333.766429 1669.912063,1335.006932 1666.415154,1350.329070 1662.551788,1346.778363"/>
    <poly id="26797595" type="leisure.nature_reserve" color="207,245,201" fill="1" layer="-2.00" shape="361.877879,1087.395603 403.066626,1098.477211 460.248686,1119.124847 474.130975,1115.662835 513.002928,1122.535268 538.999778,1134.021941 536.458035,1159.417558 526.885458,1191.547755 526.627771,1205.297838 514.350871,1234.621943 492.977911,1270.664204 487.543715,1302.871989 474.524535,1334.937679 461.337992,1375.944281 445.292867,1422.385997 460.205152,1436.420231 443.490718,1518.603297 422.698244,1523.713626 393.938812,1512.175626 378.425609,1493.319404 351.009296,1483.873311 334.942826,1494.572110 314.548958,1478.380137 292.477337,1477.967203 273.388235,1465.921797 268.983498,1443.151607 253.598142,1417.431752 244.325894,1396.626017 223.969917,1378.379597 208.391757,1362.955760 191.960274,1354.049029 171.993828,1350.642675 173.619030,1298.086713 174.068613,1274.029620 184.378410,1222.569256 197.190321,1210.987068 223.326777,1191.365507 244.299945,1176.636145 275.329592,1152.406501 314.426414,1123.194826 361.877879,1087.395603"/>
    <poly id="26798237" type="leisure.playground" color="207,245,201" fill="1" layer="-2.00" shape="364.352698,684.550237 404.468856,677.057018 417.899999,674.553031 417.333799,704.796527 426.799792,715.284365 448.994664,708.822507 475.808257,714.135559 517.630617,727.985079 501.931282,755.878490 481.376848,785.058702 466.420234,810.221787 469.876451,846.718117 515.243803,892.265892 507.632673,893.489887 450.902416,864.928537 415.219811,854.638630 373.351375,842.855433 332.238278,827.642360 317.873863,821.185039 329.253761,802.843279 342.533530,791.658961 340.323913,764.541154 334.329183,740.374609 331.805799,727.016936 366.452235,720.554448 371.519665,719.527113 364.352698,684.550237"/>
    <poly id="26798307" type="leisure.park" color="207,245,201" fill="1" layer="-2.00" shape="466.143930,1082.470341 553.989659,1107.493043 563.910467,1093.246350 573.715500,1048.732247 586.276578,1004.280938 601.962837,977.076335 616.721264,962.920423 658.653150,971.262107 723.263708,984.162822 782.366647,996.271892 800.850662,1004.185335 821.779115,991.512349 835.323868,968.390068 862.219772,932.463699 882.478491,919.089450 900.982164,889.183017 921.460527,864.135756 935.036671,838.947676 916.870397,814.540591 882.665549,798.776185 858.752601,823.081287 830.714434,846.620119 807.557568,867.495308 755.754413,907.087394 724.721269,906.504864 701.471947,895.069050 669.224376,885.519964 631.683258,864.194525 604.960552,854.071633 579.241481,864.588920 548.543543,882.568185 533.125207,889.901092 516.522898,897.789599 527.963450,913.125484 529.642274,933.778193 512.148547,947.205295 511.762300,967.819306 513.492554,985.728660 518.690917,1003.014145 512.002985,1028.332073 503.953960,1052.935647 492.586857,1070.588501 466.143930,1082.470341"/>
    <poly id="27742358" type="amenity.parking" color="184,184,179" fill="1" layer="-1.00" shape="455.279729,1472.804042 468.427384,1476.339068 474.246758,1459.171116 491.475177,1464.549223 493.722360,1457.436106 538.179508,1471.113114 535.064560,1479.065468 541.348858,1482.127571 543.604003,1486.169658 540.682260,1495.392240 557.068966,1500.643640 561.589278,1485.040218 579.918611,1492.139122 559.450343,1553.685847 529.914285,1551.010052 444.621116,1525.624143 448.730565,1512.201745 441.610511,1508.701875 455.279729,1472.804042"/>
    <poly id="27742374" type="amenity.parking" color="184,184,179" fill="1" layer="-1.00" shape="633.323423,1453.853609 738.382637,1484.746095 737.041740,1489.809581 742.434371,1491.555195 713.417713,1586.228402 708.495960,1584.236102 707.289735,1590.690947 599.502139,1558.792207 602.516284,1552.360142 595.958186,1549.759489 611.998379,1500.195926 618.292386,1501.880570 619.423125,1496.446473 634.732252,1500.866781 632.845932,1506.731127 635.052489,1507.361381 642.383435,1479.477960 641.771812,1478.233209 640.002967,1476.977860 638.329292,1482.646203 624.209278,1478.248192 625.626272,1473.408327 620.635012,1471.259245 625.613118,1457.397701 631.213159,1459.658202 633.323423,1453.853609"/>
    <poly id="27742389" type="amenity.parking" color="184,184,179" fill="1" layer="-1.00" shape="677.426436,1295.777183 702.432563,1302.612823 697.960860,1318.172632 692.071650,1336.883475 686.845738,1335.241031 686.024983,1337.858842 665.887884,1331.559037 677.426436,1295.777183"/>
    <poly id="27742404" type="amenity.parking" color="184,184,179" fill="1" layer="-1.00" shape="673.397452,1346.432600 672.059593,1350.907292 772.871483,1380.776165 774.209406,1376.301492 673.397452,1346.432600"/>
    <poly id="27742440" type="amenity.parking" color="184,184,179" fill="1" layer="-1.00" shape="799.554048,1394.621134 876.159430,1417.848379 880.476222,1403.707921 866.162086,1399.372412 868.192227,1392.710863 882.658205,1397.093671 887.686388,1380.600027 847.813143,1368.506742 841.937422,1387.762143 827.191847,1383.285287 825.573087,1388.587970 803.442445,1381.883634 799.554048,1394.621134"/>
    <poly id="27782226" type="amenity.library" color="237,199,199" fill="1" layer="-1.00" shape="1472.645529,1346.967075 1504.155009,1356.272932 1534.384388,1366.110290 1528.429451,1385.197005 1518.384698,1382.085137 1511.643398,1403.656908 1468.412062,1390.252023 1474.554707,1370.579941 1466.092235,1367.953572 1472.645529,1346.967075"/>
    <poly id="27782226#1" type="building.yes" color="255,230,230" fill="1" layer="-1.00" shape="1472.645529,1346.967075 1504.155009,1356.272932 1534.384388,1366.110290 1528.429451,1385.197005 1518.384698,1382.085137 1511.643398,1403.656908 1468.412062,1390.252023 1474.554707,1370.579941 1466.092235,1367.953572 1472.645529,1346.967075"/>
    <poly id="27782263" type="amenity.parking" color="184,184,179" fill="1" layer="-1.00" shape="1405.782120,1305.895295 1458.383431,1322.432093 1446.937146,1358.636702 1464.644094,1364.193046 1459.267547,1381.179712 1388.903686,1359.074540 1390.852200,1352.933789 1385.442695,1351.231771 1398.845639,1308.864253 1404.303177,1310.578298 1405.782120,1305.895295"/>
    <poly id="27782275" type="amenity.parking" color="184,184,179" fill="1" layer="-1.00" shape="1326.545211,1133.685221 1381.310160,1142.562474 1375.197814,1179.378931 1278.531798,1162.345236 1280.664576,1152.396982 1290.240473,1152.688639 1291.222259,1145.807443 1311.467052,1149.811270 1313.284088,1141.690326 1324.201633,1144.151688 1326.545211,1133.685221"/>
    <poly id="27782304" type="building.yes" color="255,230,230" fill="1" layer="-1.00" shape="1393.225654,1141.976241 1437.375849,1151.509180 1430.079429,1190.569820 1396.969500,1184.245133 1398.505612,1176.107796 1394.770985,1172.537463 1387.940428,1171.164173 1393.225654,1141.976241"/>
    <poly id="27782304#1" type="leisure.water_park" color="207,245,201" fill="1" layer="-2.00" shape="1393.225654,1141.976241 1437.375849,1151.509180 1430.079429,1190.569820 1396.969500,1184.245133 1398.505612,1176.107796 1394.770985,1172.537463 1387.940428,1171.164173 1393.225654,1141.976241"/>
    <poly id="27782312" type="amenity.police" color="237,199,199" fill="1" layer="-1.00" shape="1187.451540,1193.538357 1215.493590,1203.488554 1217.375779,1196.168782 1224.005878,1197.515898 1247.356914,1203.455773 1251.391390,1209.031587 1246.838763,1230.944838 1240.446315,1240.446160 1223.306558,1234.623359 1221.841919,1239.406663 1210.987153,1236.180013 1198.022195,1232.324757 1202.243901,1217.727153 1182.314016,1213.229607 1187.451540,1193.538357"/>
    <poly id="27782312#1" type="building.yes" color="255,230,230" fill="1" layer="-1.00" shape="1187.451540,1193.538357 1215.493590,1203.488554 1217.375779,1196.168782 1224.005878,1197.515898 1247.356914,1203.455773 1251.391390,1209.031587 1246.838763,1230.944838 1240.446315,1240.446160 1223.306558,1234.623359 1221.841919,1239.406663 1210.987153,1236.180013 1198.022195,1232.324757 1202.243901,1217.727153 1182.314016,1213.229607 1187.451540,1193.538357"/>
    <poly id="27782386" type="leisure.park" color="207,245,201" fill="1" layer="-2.00" shape="1280.124571,929.062978 1329.801001,1038.628422 1387.691460,1115.350695 1345.618760,1114.556921 1313.817786,1118.079166 1281.827261,1131.230913 1237.093854,1162.008531 1211.659694,1157.407164 1185.474754,1155.536077 1184.636521,1126.643748 1176.955672,1094.878190 1147.140137,1029.686058 1170.949712,1010.890899 1205.342376,979.906860 1248.785555,944.282662 1268.348856,931.596423 1280.124571,929.062978"/>
    <poly id="288252055" type="amenity.parking" color="184,184,179" fill="1" layer="-1.00" shape="580.007242,1440.687594 614.768054,1332.377793 631.227404,1336.775207 598.181753,1445.761511 580.007242,1440.687594"/>
    <poly id="288252059" type="amenity.parking" color="184,184,179" fill="1" layer="-1.00" shape="592.407719,1263.317193 588.754420,1233.527845 596.523263,1218.729765 618.613719,1225.043756 615.902986,1237.147912 629.258166,1246.353537 621.425358,1268.416713 592.407719,1263.317193"/>
    <poly id="288252060" type="amenity.parking" color="184,184,179" fill="1" layer="-1.00" shape="640.758135,1264.901737 651.568003,1254.249463 664.970538,1211.658428 659.278990,1209.551739 646.420102,1253.586251 637.656719,1262.265901 640.758135,1264.901737"/>
    <poly id="288252087" type="amenity.parking" color="184,184,179" fill="1" layer="-1.00" shape="653.302817,1182.340871 560.055149,1153.549040 558.542143,1158.364897 651.789956,1187.145601 653.302817,1182.340871"/>
    <poly id="290560888" type="landuse.retail" color="194,194,130" fill="1" layer="-3.00" shape="1686.234483,1541.218643 1721.943667,1552.371630 1729.184890,1517.154485 1700.757412,1508.139149 1692.607924,1505.551734 1686.234483,1541.218643"/>
    <poly id="292673319" type="amenity.parking" color="184,184,179" fill="1" layer="-1.00" shape="1170.930956,1187.694031 1161.236318,1215.899081 1164.397883,1225.147129 1194.727457,1232.707104 1196.262467,1228.880635 1194.013383,1228.371612 1196.109017,1221.666941 1178.583490,1215.836990 1185.536030,1193.668928 1170.930956,1187.694031"/>
    <poly id="305056278" type="amenity.parking" color="184,184,179" fill="1" layer="-1.00" shape="1536.012915,1544.522745 1540.902911,1507.349975 1551.093530,1508.686936 1546.203687,1545.848593 1536.012915,1544.522745"/>
    <poly id="305056280" type="amenity.parking" color="184,184,179" fill="1" layer="-1.00" shape="1565.920097,1504.589525 1547.318321,1498.771549 1551.508287,1485.462374 1570.110307,1491.269255 1565.920097,1504.589525"/>
    <poly id="305056435" type="building.yes" color="255,230,230" fill="1" layer="-1.00" shape="1641.952639,1462.717510 1644.918368,1451.251829 1649.373629,1452.402706 1651.783342,1443.137536 1671.876219,1448.317364 1669.526294,1457.394778 1655.880355,1453.881262 1652.855004,1465.523582 1641.952639,1462.717510"/>
    <poly id="305056910" type="amenity.parking" color="184,184,179" fill="1" layer="-1.00" shape="1685.374840,1441.772968 1688.912281,1431.106977 1674.805420,1426.462526 1671.267999,1437.128525 1685.374840,1441.772968"/>
    <poly id="305056912" type="amenity.parking" color="184,184,179" fill="1" layer="-1.00" shape="1721.179109,1486.159756 1727.289589,1463.976258 1689.418860,1453.615671 1686.890255,1462.789695 1708.456257,1468.697478 1704.866637,1481.695715 1721.179109,1486.159756"/>
    <poly id="305056914" type="amenity.parking" color="184,184,179" fill="1" layer="-1.00" shape="1656.419173,1467.890897 1678.032761,1473.832812 1685.831186,1445.692558 1674.124840,1442.471241 1669.362916,1459.658265 1659.455611,1456.937649 1656.419173,1467.890897"/>
    <poly id="305056916" type="building.yes" color="255,230,230" fill="1" layer="-1.00" shape="1703.039787,1481.816701 1706.561132,1469.028274 1686.418611,1463.502967 1682.889058,1476.302358 1703.039787,1481.816701"/>
    <poly id="305056917" type="building.yes" color="255,230,230" fill="1" layer="-1.00" shape="1660.339704,1433.566409 1669.329805,1436.336340 1672.548400,1425.953187 1663.550250,1423.183100 1660.339704,1433.566409"/>
    <poly id="31812692" type="building.apartments" color="255,230,230" fill="1" layer="-1.00" shape="1410.544616,1016.075025 1362.706288,999.173032 1340.460878,953.333101 1357.325498,944.373834 1376.206099,981.517368 1406.183464,992.882577 1417.955846,997.337911 1413.178059,1009.425006 1411.557704,1013.505364 1410.544616,1016.075025"/>
    <poly id="31812693" type="building.apartments" color="255,230,230" fill="1" layer="-1.00" shape="1527.634272,941.377920 1511.344323,989.268231 1462.096235,1015.103782 1457.958618,1006.903779 1455.389586,1008.010784 1454.794764,1006.732940 1450.141195,997.334362 1493.435175,976.063858 1508.726160,934.243277 1527.634272,941.377920"/>