<?xml version="1.0" encoding="UTF-8"?>

<!-- generated on 2022-10-26 15:59:17.924170 by osmWebWizard.py v1_14_1+0000-f654d7b963e
<configuration>
    <allow-fringe.min-length value="1000.0"/>
    <end value="3600"/>
    <fringe-factor value="5.0"/>
    <fringe-start-attributes value="departSpeed=&quot;max&quot;"/>
    <lanes value="True"/>
    <min-distance value="300.0"/>
    <net-file value="C:\Users\adrianfi\Sumo\2022-10-26-15-59-11\osm.net.xml"/>
    <period value="7.9193597989538524"/>
    <route-file value="C:\Users\adrianfi\Sumo\2022-10-26-15-59-11\osm.passenger.rou.xml"/>
    <trip-attributes value="departLane=&quot;best&quot;"/>
    <output-trip-file value="C:\Users\adrianfi\Sumo\2022-10-26-15-59-11\osm.passenger.trips.xml"/>
    <prefix value="veh"/>
    <validate value="True"/>
    <vehicle-class value="passenger"/>
</configuration>
-->

<!-- generated on 2022-10-26 15:59:17 by Eclipse SUMO duarouter Version 1.14.1
<configuration xmlns:xsi="http://www.w3.org/2001/XMLSchema-instance" xsi:noNamespaceSchemaLocation="http://sumo.dlr.de/xsd/duarouterConfiguration.xsd">

    <input>
        <net-file value="C:\Users\adrianfi\Sumo\2022-10-26-15-59-11\osm.net.xml"/>
        <route-files value="C:\Users\adrianfi\Sumo\2022-10-26-15-59-11\osm.passenger.trips.xml"/>
    </input>

    <output>
        <output-file value="C:\Users\adrianfi\Sumo\2022-10-26-15-59-11\osm.passenger.trips.xml.tmp"/>
        <alternatives-output value="NUL"/>
        <write-trips value="true"/>
    </output>

    <time>
        <begin value="0"/>
        <end value="3600"/>
    </time>

    <report>
        <no-warnings value="true"/>
        <ignore-errors value="true"/>
        <no-step-log value="true"/>
    </report>

</configuration>
-->

<routes xmlns:xsi="http://www.w3.org/2001/XMLSchema-instance" xsi:noNamespaceSchemaLocation="http://sumo.dlr.de/xsd/routes_file.xsd">
    <vType id="veh_passenger" vClass="passenger"/>
    <trip id="veh0" type="veh_passenger" depart="0.00" departLane="best" from="35349093" to="-157801815#1"/>
    <trip id="veh1" type="veh_passenger" depart="7.92" departLane="best" from="56698980#0" to="48757108#3"/>
    <trip id="veh2" type="veh_passenger" depart="15.84" departLane="best" from="787217956#2" to="-157801832#2"/>
    <trip id="veh3" type="veh_passenger" depart="23.76" departLane="best" from="1029909704#0" to="-157801816#1"/>
    <trip id="veh4" type="veh_passenger" depart="31.68" departLane="best" departSpeed="max" from="-27121077#1" to="26346098#2"/>
    <trip id="veh5" type="veh_passenger" depart="39.60" departLane="best" departSpeed="max" from="-157801814#2" to="-35349737"/>
    <trip id="veh6" type="veh_passenger" depart="47.52" departLane="best" from="35350741" to="26346133#4"/>
    <trip id="veh8" type="veh_passenger" depart="63.35" departLane="best" from="-787217955#0" to="-26346125#1"/>
    <trip id="veh9" type="veh_passenger" depart="71.27" departLane="best" departSpeed="max" from="-160120471#1" to="-157801839"/>
    <trip id="veh10" type="veh_passenger" depart="79.19" departLane="best" from="56699107#0" to="290560886"/>
    <trip id="veh11" type="veh_passenger" depart="87.11" departLane="best" from="56699087#1" to="56699014#0"/>
    <trip id="veh12" type="veh_passenger" depart="95.03" departLane="best" departSpeed="max" from="157801839" to="858716456#0"/>
    <trip id="veh13" type="veh_passenger" depart="102.95" departLane="best" from="-858716449#1" to="26346143#0"/>
    <trip id="veh14" type="veh_passenger" depart="110.87" departLane="best" from="56699106#0" to="290560886"/>
    <trip id="veh15" type="veh_passenger" depart="118.79" departLane="best" from="787217952#0" to="27121047#2"/>
    <trip id="veh16" type="veh_passenger" depart="126.71" departLane="best" from="48757108#1" to="-157801818#5"/>
    <trip id="veh18" type="veh_passenger" depart="142.55" departLane="best" from="-231406564#0" to="-829319582#0"/>
    <trip id="veh19" type="veh_passenger" depart="150.47" departLane="best" from="35346259" to="157801809#0"/>
    <trip id="veh20" type="veh_passenger" depart="158.39" departLane="best" departSpeed="max" from="-856561983#1" to="-35352054"/>
    <trip id="veh21" type="veh_passenger" depart="166.31" departLane="best" from="-35351661#0" to="856561983#1"/>
    <trip id="veh22" type="veh_passenger" depart="174.23" departLane="best" from="35350125" to="290560886"/>
    <trip id="veh23" type="veh_passenger" depart="182.15" departLane="best" departSpeed="max" from="-26346133#4" to="56699014#0"/>
    <trip id="veh24" type="veh_passenger" depart="190.06" departLane="best" from="-26346133#2" to="157801814#2"/>
    <trip id="veh25" type="veh_passenger" depart="197.98" departLane="best" from="859881541#0" to="35351661#1"/>
    <trip id="veh26" type="veh_passenger" depart="205.90" departLane="best" from="231406564#1" to="48757108#5"/>
    <trip id="veh27" type="veh_passenger" depart="213.82" departLane="best" departSpeed="max" from="-290560886" to="-157801816#1"/>
    <trip id="veh28" type="veh_passenger" depart="221.74" departLane="best" departSpeed="max" from="-56699014#1" to="-787217955#0"/>
    <trip id="veh29" type="veh_passenger" depart="229.66" departLane="best" departSpeed="max" from="-27121077#1" to="856562001#0"/>
    <trip id="veh30" type="veh_passenger" depart="237.58" departLane="best" from="787217954" to="-859881538#0"/>
    <trip id="veh31" type="veh_passenger" depart="245.50" departLane="best" from="35351661#1" to="157801815#1"/>
    <trip id="veh32" type="veh_passenger" depart="253.42" departLane="best" from="829736970" to="160120471#1"/>
    <trip id="veh33" type="veh_passenger" depart="261.34" departLane="best" from="-35351479" to="-48757108#2"/>
    <trip id="veh34" type="veh_passenger" depart="269.26" departLane="best" from="231406564#1" to="-56699034#1"/>
    <trip id="veh35" type="veh_passenger" depart="277.18" departLane="best" from="26346118#1" to="807291180"/>
    <trip id="veh36" type="veh_passenger" depart="285.10" departLane="best" from="-859881541#0" to="-48756662#0"/>
    <trip id="veh37" type="veh_passenger" depart="293.02" departLane="best" departSpeed="max" from="-160120471#1" to="-157801818#5"/>
    <trip id="veh38" type="veh_passenger" depart="300.94" departLane="best" departSpeed="max" from="-26237518#1" to="35349542"/>
    <trip id="veh39" type="veh_passenger" depart="308.86" departLane="best" from="56699038#1" to="157801818#5"/>
    <trip id="veh40" type="veh_passenger" depart="316.77" departLane="best" from="-157801824#1" to="157801814#2"/>
    <trip id="veh41" type="veh_passenger" depart="324.69" departLane="best" from="96315599" to="26346125#1"/>
    <trip id="veh42" type="veh_passenger" depart="332.61" departLane="best" departSpeed="max" from="859881538#0" to="787217953#0"/>
    <trip id="veh43" type="veh_passenger" depart="340.53" departLane="best" from="-157801810#1" to="56699014#0"/>
    <trip id="veh44" type="veh_passenger" depart="348.45" departLane="best" from="48756663" to="26346133#3"/>
    <trip id="veh45" type="veh_passenger" depart="356.37" departLane="best" from="-35351661#0" to="35352054"/>
    <trip id="veh46" type="veh_passenger" depart="364.29" departLane="best" departSpeed="max" from="-26237518#1" to="157801827#2"/>
    <trip id="veh47" type="veh_passenger" depart="372.21" departLane="best" from="157801815#0" to="858716448#1"/>
    <trip id="veh48" type="veh_passenger" depart="380.13" departLane="best" from="787217954" to="-56699034#1"/>
    <trip id="veh49" type="veh_passenger" depart="388.05" departLane="best" departSpeed="max" from="157801824#0" to="-26346182#1"/>
    <trip id="veh50" type="veh_passenger" depart="395.97" departLane="best" from="-48757109" to="35351661#1"/>
    <trip id="veh51" type="veh_passenger" depart="403.89" departLane="best" from="56699024#1" to="26346133#4"/>
    <trip id="veh52" type="veh_passenger" depart="411.81" departLane="best" from="56699036#0" to="26346125#2"/>
    <trip id="veh53" type="veh_passenger" depart="419.73" departLane="best" from="-157801808" to="-859881540"/>
    <trip id="veh54" type="veh_passenger" depart="427.65" departLane="best" from="-157801811#0" to="856561983#1"/>
    <trip id="veh55" type="veh_passenger" depart="435.56" departLane="best" from="787217955#0" to="56699106#2"/>
    <trip id="veh56" type="veh_passenger" depart="443.48" departLane="best" departSpeed="max" from="-56675982" to="-157801824#0"/>
    <trip id="veh57" type="veh_passenger" depart="451.40" departLane="best" from="-160120463#0" to="26237518#1"/>
    <trip id="veh58" type="veh_passenger" depart="459.32" departLane="best" from="-157801827#2" to="56699034#0"/>
    <trip id="veh59" type="veh_passenger" depart="467.24" departLane="best" from="157801818#1" to="26346136#2"/>
    <trip id="veh60" type="veh_passenger" depart="475.16" departLane="best" from="1029909704#0" to="-35352311"/>
    <trip id="veh61" type="veh_passenger" depart="483.08" departLane="best" from="157802100#0" to="56699014#0"/>
    <trip id="veh62" type="veh_passenger" depart="491.00" departLane="best" departSpeed="max" from="-27121047#2" to="-859881538#0"/>
    <trip id="veh63" type="veh_passenger" depart="498.92" departLane="best" from="96315599" to="48755962#0"/>
    <trip id="veh64" type="veh_passenger" depart="506.84" departLane="best" from="157801809#1" to="26346118#4"/>
    <trip id="veh66" type="veh_passenger" depart="522.68" departLane="best" from="-787217955#0" to="27121077#1"/>
    <trip id="veh67" type="veh_passenger" depart="530.60" departLane="best" departSpeed="max" from="-290560886" to="-48756662#0"/>
    <trip id="veh68" type="veh_passenger" depart="538.52" departLane="best" departSpeed="max" from="-290560886" to="829736970"/>
    <trip id="veh69" type="veh_passenger" depart="546.44" departLane="best" from="56699113#2" to="-157801827#3"/>
    <trip id="veh70" type="veh_passenger" depart="554.36" departLane="best" departSpeed="max" from="-290560886" to="48757108#1"/>
    <trip id="veh71" type="veh_passenger" depart="562.27" departLane="best" departSpeed="max" from="-27121077#1" to="-26346098#2"/>
    <trip id="veh72" type="veh_passenger" depart="570.19" departLane="best" from="856562001#0" to="27121047#2"/>
    <trip id="veh73" type="veh_passenger" depart="578.11" departLane="best" from="56699087#1" to="-35346324"/>
    <trip id="veh74" type="veh_passenger" depart="586.03" departLane="best" departSpeed="max" from="-160120471#1" to="157801824#2"/>
    <trip id="veh75" type="veh_passenger" depart="593.95" departLane="best" from="1029909704#0" to="231406564#0"/>
    <trip id="veh76" type="veh_passenger" depart="601.87" departLane="best" from="56698963#0" to="48757108#2"/>
    <trip id="veh77" type="veh_passenger" depart="609.79" departLane="best" from="859881538#2" to="-157801839"/>
    <trip id="veh78" type="veh_passenger" depart="617.71" departLane="best" from="-859881541#0" to="-96315599"/>
    <trip id="veh79" type="veh_passenger" depart="625.63" departLane="best" from="787217952#0" to="-48757108#3"/>
    <trip id="veh80" type="veh_passenger" depart="633.55" departLane="best" from="1029909704#0" to="-829319582#0"/>
    <trip id="veh81" type="veh_passenger" depart="641.47" departLane="best" from="-35346259" to="856561983#1"/>
    <trip id="veh82" type="veh_passenger" depart="649.39" departLane="best" from="157801810#1" to="787217953#0"/>
    <trip id="veh83" type="veh_passenger" depart="657.31" departLane="best" from="231406564#0" to="-157801818#7"/>
    <trip id="veh84" type="veh_passenger" depart="665.23" departLane="best" from="858716456#1" to="856561983#1"/>
    <trip id="veh85" type="veh_passenger" depart="673.15" departLane="best" from="56699107#0" to="-26346136#2"/>
    <trip id="veh86" type="veh_passenger" depart="681.06" departLane="best" from="157801818#5" to="-48755962#0"/>
    <trip id="veh87" type="veh_passenger" depart="688.98" departLane="best" from="-859881541#0" to="-157801824#0"/>
    <trip id="veh88" type="veh_passenger" depart="696.90" departLane="best" from="-858716449#2" to="859881538#3"/>
    <trip id="veh89" type="veh_passenger" depart="704.82" departLane="best" from="231406564#0" to="56699014#0"/>
    <trip id="veh90" type="veh_passenger" depart="712.74" departLane="best" from="-26346125#0" to="-858716449#1"/>
    <trip id="veh91" type="veh_passenger" depart="720.66" departLane="best" from="858716456#1" to="27121047#2"/>
    <trip id="veh92" type="veh_passenger" depart="728.58" departLane="best" from="157802106#0" to="56699024#0"/>
    <trip id="veh93" type="veh_passenger" depart="736.50" departLane="best" from="-157801818#5" to="27121077#1"/>
    <trip id="veh94" type="veh_passenger" depart="744.42" departLane="best" from="157801824#1" to="787217952#0"/>
    <trip id="veh95" type="veh_passenger" depart="752.34" departLane="best" from="-157801838#0" to="-27121047#1"/>
    <trip id="veh96" type="veh_passenger" depart="760.26" departLane="best" from="26346118#6" to="48757108#2"/>
    <trip id="veh98" type="veh_passenger" depart="776.10" departLane="best" from="787217956#2" to="-48757108#2"/>
    <trip id="veh99" type="veh_passenger" depart="784.02" departLane="best" from="26346118#6" to="35346259"/>
    <trip id="veh100" type="veh_passenger" depart="791.94" departLane="best" from="157801832#0" to="856561983#1"/>
    <trip id="veh101" type="veh_passenger" depart="799.86" departLane="best" departSpeed="max" from="-27121047#2" to="56698991#0"/>
    <trip id="veh102" type="veh_passenger" depart="807.77" departLane="best" departSpeed="max" from="-290560886" to="157801815#1"/>
    <trip id="veh103" type="veh_passenger" depart="815.69" departLane="best" departSpeed="max" from="-56699014#1" to="56699024#1"/>
    <trip id="veh104" type="veh_passenger" depart="823.61" departLane="best" from="-157801827#3" to="160120471#1"/>
    <trip id="veh105" type="veh_passenger" depart="831.53" departLane="best" from="-157801830#1" to="-48755962#0"/>
    <trip id="veh106" type="veh_passenger" depart="839.45" departLane="best" from="-35351479" to="856561983#1"/>
    <trip id="veh107" type="veh_passenger" depart="847.37" departLane="best" departSpeed="max" from="-856561983#1" to="-26346125#2"/>
    <trip id="veh108" type="veh_passenger" depart="855.29" departLane="best" from="56699106#1" to="56698963#0"/>
    <trip id="veh109" type="veh_passenger" depart="863.21" departLane="best" from="26346136#1" to="859881541#0"/>
    <trip id="veh110" type="veh_passenger" depart="871.13" departLane="best" from="472736051#1" to="856561983#1"/>
    <trip id="veh111" type="veh_passenger" depart="879.05" departLane="best" departSpeed="max" from="-26237518#1" to="26346143#1"/>
    <trip id="veh112" type="veh_passenger" depart="886.97" departLane="best" from="-35352311" to="290560886"/>
    <trip id="veh113" type="veh_passenger" depart="894.89" departLane="best" from="48757108#4" to="-35351479"/>
    <trip id="veh114" type="veh_passenger" depart="902.81" departLane="best" from="157801818#7" to="829736970"/>
    <trip id="veh115" type="veh_passenger" depart="910.73" departLane="best" from="56699107#0" to="-157801839"/>
    <trip id="veh116" type="veh_passenger" depart="918.65" departLane="best" from="1029909704#0" to="-807291180"/>
    <trip id="veh117" type="veh_passenger" depart="926.57" departLane="best" from="-157801809#0" to="56699036#0"/>
    <trip id="veh118" type="veh_passenger" depart="934.48" departLane="best" from="35346324" to="-56699034#1"/>
    <trip id="veh119" type="veh_passenger" depart="942.40" departLane="best" from="56698991#0" to="26346143#0"/>
    <trip id="veh120" type="veh_passenger" depart="950.32" departLane="best" from="1030469072#1" to="-157801810#0"/>
    <trip id="veh121" type="veh_passenger" depart="958.24" departLane="best" from="-157801832#0" to="787217956#2"/>
    <trip id="veh122" type="veh_passenger" depart="966.16" departLane="best" from="807291180" to="26346133#4"/>
    <trip id="veh123" type="veh_passenger" depart="974.08" departLane="best" from="56699106#1" to="27121077#1"/>
    <trip id="veh124" type="veh_passenger" depart="982.00" departLane="best" from="-26346118#6" to="-26346098#1"/>
    <trip id="veh125" type="veh_passenger" depart="989.92" departLane="best" departSpeed="max" from="-56675982" to="807291180"/>
    <trip id="veh126" type="veh_passenger" depart="997.84" departLane="best" from="56699063#1" to="787217953#0"/>
    <trip id="veh127" type="veh_passenger" depart="1005.76" departLane="best" from="-35346259" to="-157802100#0"/>
    <trip id="veh128" type="veh_passenger" depart="1013.68" departLane="best" from="56699036#0" to="787217956#2"/>
    <trip id="veh129" type="veh_passenger" depart="1021.60" departLane="best" from="-859881541#1" to="35346259"/>
    <trip id="veh130" type="veh_passenger" depart="1029.52" departLane="best" from="-26346125#0" to="856561983#1"/>
    <trip id="veh131" type="veh_passenger" depart="1037.44" departLane="best" from="787217953#0" to="858716456#0"/>
    <trip id="veh132" type="veh_passenger" depart="1045.36" departLane="best" from="56699087#2" to="787217956#2"/>
    <trip id="veh133" type="veh_passenger" depart="1053.27" departLane="best" departSpeed="max" from="-157801814#2" to="56699019#0"/>
    <trip id="veh134" type="veh_passenger" depart="1061.19" departLane="best" from="-56699034#0" to="856561983#1"/>
    <trip id="veh135" type="veh_passenger" depart="1069.11" departLane="best" from="56699080#0" to="787217954"/>
    <trip id="veh136" type="veh_passenger" depart="1077.03" departLane="best" from="56699087#2" to="-787217955#0"/>
    <trip id="veh137" type="veh_passenger" depart="1084.95" departLane="best" from="56699037#1" to="-231406564#0"/>
    <trip id="veh138" type="veh_passenger" depart="1092.87" departLane="best" from="157801815#2" to="-858716456#0"/>
    <trip id="veh139" type="veh_passenger" depart="1100.79" departLane="best" from="56699063#1" to="-48756665"/>
    <trip id="veh140" type="veh_passenger" depart="1108.71" departLane="best" departSpeed="max" from="-157801814#2" to="-35349093"/>
    <trip id="veh141" type="veh_passenger" depart="1116.63" departLane="best" departSpeed="max" from="-56699014#1" to="787217954"/>
    <trip id="veh142" type="veh_passenger" depart="1124.55" departLane="best" from="858716456#1" to="-829319582#0"/>
    <trip id="veh144" type="veh_passenger" depart="1140.39" departLane="best" from="858716456#1" to="-26346182#1"/>
    <trip id="veh145" type="veh_passenger" depart="1148.31" departLane="best" from="858716456#0" to="-56699034#1"/>
    <trip id="veh146" type="veh_passenger" depart="1156.23" departLane="best" departSpeed="max" from="-26237518#1" to="157801827#2"/>
    <trip id="veh147" type="veh_passenger" depart="1164.15" departLane="best" from="56698963#0" to="-859881538#0"/>
    <trip id="veh148" type="veh_passenger" depart="1172.07" departLane="best" from="26346133#1" to="26346118#1"/>
    <trip id="veh149" type="veh_passenger" depart="1179.98" departLane="best" from="-858716456#0" to="27121047#2"/>
    <trip id="veh150" type="veh_passenger" depart="1187.90" departLane="best" from="-35349540" to="56698980#0"/>
    <trip id="veh151" type="veh_passenger" depart="1195.82" departLane="best" from="-157801808" to="856561983#1"/>
    <trip id="veh152" type="veh_passenger" depart="1203.74" departLane="best" departSpeed="max" from="157801839" to="56699014#0"/>
    <trip id="veh153" type="veh_passenger" depart="1211.66" departLane="best" from="56698991#0" to="48757108#1"/>
    <trip id="veh154" type="veh_passenger" depart="1219.58" departLane="best" departSpeed="max" from="-856561983#1" to="-157801827#2"/>
    <trip id="veh155" type="veh_passenger" depart="1227.50" departLane="best" from="472736051#1" to="-859881541#0"/>
    <trip id="veh156" type="veh_passenger" depart="1235.42" departLane="best" departSpeed="max" from="-56699014#1" to="56699113#2"/>
    <trip id="veh157" type="veh_passenger" depart="1243.34" departLane="best" from="48757108#4" to="-858716453#0"/>
    <trip id="veh158" type="veh_passenger" depart="1251.26" departLane="best" from="-859881541#0" to="-858716449#1"/>
    <trip id="veh159" type="veh_passenger" depart="1259.18" departLane="best" from="787217958#1" to="290560886"/>
    <trip id="veh160" type="veh_passenger" depart="1267.10" departLane="best" departSpeed="max" from="-56675982" to="26346136#1"/>
    <trip id="veh161" type="veh_passenger" depart="1275.02" departLane="best" from="-157801808" to="-856561982"/>
    <trip id="veh162" type="veh_passenger" depart="1282.94" departLane="best" from="1099892582" to="27121047#2"/>
    <trip id="veh163" type="veh_passenger" depart="1290.86" departLane="best" from="35351661#0" to="160120471#1"/>
    <trip id="veh164" type="veh_passenger" depart="1298.78" departLane="best" from="157801810#1" to="-48755962#0"/>
    <trip id="veh165" type="veh_passenger" depart="1306.69" departLane="best" from="56699063#1" to="-26346143#0"/>
    <trip id="veh166" type="veh_passenger" depart="1314.61" departLane="best" from="-157802100#0" to="26346118#3"/>
    <trip id="veh167" type="veh_passenger" depart="1322.53" departLane="best" from="26346182#4" to="-859881541#1"/>
    <trip id="veh168" type="veh_passenger" depart="1330.45" departLane="best" from="56699099#1" to="56699024#1"/>
    <trip id="veh169" type="veh_passenger" depart="1338.37" departLane="best" from="48756409#0" to="-48756665"/>
    <trip id="veh170" type="veh_passenger" depart="1346.29" departLane="best" from="-27121047#1" to="-157801815#1"/>
    <trip id="veh171" type="veh_passenger" depart="1354.21" departLane="best" departSpeed="max" from="-290560886" to="231406564#1"/>
    <trip id="veh172" type="veh_passenger" depart="1362.13" departLane="best" from="56699107#0" to="-157801830#0"/>
    <trip id="veh173" type="veh_passenger" depart="1370.05" departLane="best" from="1029909703#1" to="35349737"/>
    <trip id="veh174" type="veh_passenger" depart="1377.97" departLane="best" from="-26346182#3" to="56675982"/>
    <trip id="veh175" type="veh_passenger" depart="1385.89" departLane="best" departSpeed="max" from="157801824#0" to="-48756666"/>
    <trip id="veh176" type="veh_passenger" depart="1393.81" departLane="best" departSpeed="max" from="-26237518#1" to="157801818#7"/>
    <trip id="veh177" type="veh_passenger" depart="1401.73" departLane="best" from="-26346136#1" to="858716449#1"/>
    <trip id="veh178" type="veh_passenger" depart="1409.65" departLane="best" departSpeed="max" from="157801830#0" to="-157801818#7"/>
    <trip id="veh179" type="veh_passenger" depart="1417.57" departLane="best" from="-35346259" to="56699113#2"/>
    <trip id="veh180" type="veh_passenger" depart="1425.48" departLane="best" from="157801815#1" to="56699087#1"/>
    <trip id="veh181" type="veh_passenger" depart="1433.40" departLane="best" from="48755962#1" to="859881541#0"/>
    <trip id="veh182" type="veh_passenger" depart="1441.32" departLane="best" from="26346118#6" to="858716448#0"/>
    <trip id="veh183" type="veh_passenger" depart="1449.24" departLane="best" from="787217956#2" to="290560886"/>
    <trip id="veh184" type="veh_passenger" depart="1457.16" departLane="best" from="48757108#4" to="26346098#2"/>
    <trip id="veh185" type="veh_passenger" depart="1465.08" departLane="best" from="56699106#0" to="26346136#1"/>
    <trip id="veh186" type="veh_passenger" depart="1473.00" departLane="best" from="787217956#3" to="56699019#0"/>
    <trip id="veh187" type="veh_passenger" depart="1480.92" departLane="best" from="157801818#1" to="-56699034#0"/>
    <trip id="veh188" type="veh_passenger" depart="1488.84" departLane="best" departSpeed="max" from="-290560886" to="35351661#0"/>
    <trip id="veh189" type="veh_passenger" depart="1496.76" departLane="best" from="56699033#0" to="26346118#6"/>
    <trip id="veh190" type="veh_passenger" depart="1504.68" departLane="best" from="-157801832#2" to="-856561982"/>
    <trip id="veh191" type="veh_passenger" depart="1512.60" departLane="best" from="-35352054" to="-859881538#2"/>
    <trip id="veh192" type="veh_passenger" depart="1520.52" departLane="best" from="157802100#0" to="-26346118#1"/>
    <trip id="veh193" type="veh_passenger" depart="1528.44" departLane="best" departSpeed="max" from="-290560886" to="56675982"/>
    <trip id="veh194" type="veh_passenger" depart="1536.36" departLane="best" from="48757108#1" to="-157801824#1"/>
    <trip id="veh195" type="veh_passenger" depart="1544.28" departLane="best" from="-859881541#1" to="26346133#4"/>
    <trip id="veh196" type="veh_passenger" depart="1552.19" departLane="best" from="1029909703#1" to="-35351661#0"/>
    <trip id="veh197" type="veh_passenger" depart="1560.11" departLane="best" from="1029909704#0" to="829736970"/>
    <trip id="veh198" type="veh_passenger" depart="1568.03" departLane="best" from="26346118#1" to="56675982"/>
    <trip id="veh199" type="veh_passenger" depart="1575.95" departLane="best" from="56699113#2" to="56699034#1"/>
    <trip id="veh200" type="veh_passenger" depart="1583.87" departLane="best" from="-858716449#2" to="-157801810#0"/>
    <trip id="veh201" type="veh_passenger" depart="1591.79" departLane="best" from="-856561977#0" to="56699024#1"/>
    <trip id="veh202" type="veh_passenger" depart="1599.71" departLane="best" from="157802106#0" to="290560886"/>
    <trip id="veh204" type="veh_passenger" depart="1615.55" departLane="best" from="157801808" to="-157801815#3"/>
    <trip id="veh205" type="veh_passenger" depart="1623.47" departLane="best" from="-56699034#1" to="48757108#3"/>
    <trip id="veh206" type="veh_passenger" depart="1631.39" departLane="best" from="-859881541#0" to="-26346136#1"/>
    <trip id="veh207" type="veh_passenger" depart="1639.31" departLane="best" from="26346159#2" to="-157801815#2"/>
    <trip id="veh208" type="veh_passenger" depart="1647.23" departLane="best" from="-859881538#3" to="26346182#2"/>
    <trip id="veh209" type="veh_passenger" depart="1655.15" departLane="best" departSpeed="max" from="-157801814#2" to="35352311"/>
    <trip id="veh210" type="veh_passenger" depart="1663.07" departLane="best" from="-26346098#3" to="160120471#1"/>
    <trip id="veh211" type="veh_passenger" depart="1670.98" departLane="best" from="-157801818#2" to="157801814#2"/>
    <trip id="veh212" type="veh_passenger" depart="1678.90" departLane="best" departSpeed="max" from="-27121077#1" to="-859881541#0"/>
    <trip id="veh213" type="veh_passenger" depart="1686.82" departLane="best" from="56699024#1" to="157801814#2"/>
    <trip id="veh214" type="veh_passenger" depart="1694.74" departLane="best" from="-35346324" to="-157801830#0"/>
    <trip id="veh215" type="veh_passenger" depart="1702.66" departLane="best" from="-157801811#0" to="26346133#4"/>
    <trip id="veh216" type="veh_passenger" depart="1710.58" departLane="best" from="96315599" to="1029909704#0"/>
    <trip id="veh217" type="veh_passenger" depart="1718.50" departLane="best" from="35350741" to="56699037#1"/>
    <trip id="veh218" type="veh_passenger" depart="1726.42" departLane="best" from="35351479" to="56699024#1"/>
    <trip id="veh219" type="veh_passenger" depart="1734.34" departLane="best" from="858716449#1" to="-35350125"/>
    <trip id="veh220" type="veh_passenger" depart="1742.26" departLane="best" from="-157801814#1" to="-26346125#0"/>
    <trip id="veh223" type="veh_passenger" depart="1766.02" departLane="best" departSpeed="max" from="48756666" to="56699034#1"/>
    <trip id="veh224" type="veh_passenger" depart="1773.94" departLane="best" departSpeed="max" from="-26346133#4" to="290560886"/>
    <trip id="veh225" type="veh_passenger" depart="1781.86" departLane="best" from="56699019#0" to="-231406564#1"/>
    <trip id="veh226" type="veh_passenger" depart="1789.78" departLane="best" from="56699099#2" to="858716449#2"/>
    <trip id="veh227" type="veh_passenger" depart="1797.69" departLane="best" departSpeed="max" from="-56699014#1" to="48757108#3"/>
    <trip id="veh228" type="veh_passenger" depart="1805.61" departLane="best" from="858716453#0" to="157801815#2"/>
    <trip id="veh229" type="veh_passenger" depart="1813.53" departLane="best" from="48757108#3" to="-157801830#0"/>
    <trip id="veh230" type="veh_passenger" depart="1821.45" departLane="best" from="-231406564#0" to="56699036#0"/>
    <trip id="veh231" type="veh_passenger" depart="1829.37" departLane="best" from="56699107#0" to="290560886"/>
    <trip id="veh233" type="veh_passenger" depart="1845.21" departLane="best" from="56699037#0" to="1029909704#0"/>
    <trip id="veh234" type="veh_passenger" depart="1853.13" departLane="best" from="1099892582" to="157801810#1"/>
    <trip id="veh235" type="veh_passenger" depart="1861.05" departLane="best" from="157801827#1" to="-96315599"/>
    <trip id="veh236" type="veh_passenger" depart="1868.97" departLane="best" from="56699107#0" to="56699106#0"/>
    <trip id="veh237" type="veh_passenger" depart="1876.89" departLane="best" from="35346259" to="56699106#1"/>
    <trip id="veh238" type="veh_passenger" depart="1884.81" departLane="best" from="-35351661#1" to="56699099#1"/>
    <trip id="veh239" type="veh_passenger" depart="1892.73" departLane="best" departSpeed="max" from="157801839" to="26237518#1"/>
    <trip id="veh240" type="veh_passenger" depart="1900.65" departLane="best" from="157801808" to="56699014#0"/>
    <trip id="veh241" type="veh_passenger" depart="1908.57" departLane="best" from="-35351661#1" to="787217952#0"/>
    <trip id="veh242" type="veh_passenger" depart="1916.49" departLane="best" from="157801815#3" to="290560886"/>
    <trip id="veh243" type="veh_passenger" depart="1924.40" departLane="best" from="56699107#0" to="-26346182#3"/>
    <trip id="veh244" type="veh_passenger" depart="1932.32" departLane="best" departSpeed="max" from="-27121077#1" to="56699080#0"/>