<?xml version="1.0" encoding="UTF-8"?>

<!-- generated on 2022-10-26 16:02:38 by Eclipse SUMO netedit Version 1.14.1
<configuration xmlns:xsi="http://www.w3.org/2001/XMLSchema-instance" xsi:noNamespaceSchemaLocation="http://sumo.dlr.de/xsd/netconvertConfiguration.xsd">

    <input>
        <sumo-net-file value="C:\Users\adrianfi\Sumo\2022-10-26-15-59-11\osm.net.xml"/>
    </input>

    <output>
        <output-file value="C:\Users\adrianfi\Sumo\2022-10-26-15-59-11\osm.net.xml"/>
        <output.street-names value="true"/>
    </output>

    <processing>
        <geometry.min-radius.fix.railways value="false"/>
        <geometry.max-grade.fix value="false"/>
        <offset.disable-normalization value="true"/>
        <lefthand value="false"/>
    </processing>

    <junctions>
        <no-turnarounds value="true"/>
        <junctions.corner-detail value="5"/>
        <junctions.limit-turn-speed value="5.5"/>
        <rectangular-lane-cut value="false"/>
    </junctions>

    <pedestrian>
        <walkingareas value="false"/>
    </pedestrian>

</configuration>
-->

<net version="1.9" junctionCornerDetail="5" limitTurnSpeed="5.50" xmlns:xsi="http://www.w3.org/2001/XMLSchema-instance" xsi:noNamespaceSchemaLocation="http://sumo.dlr.de/xsd/net_file.xsd">

    <location netOffset="-623939.96,-4857289.10" convBoundary="0.00,0.00,2333.78,1814.38" origBoundary="-79.457564,43.858116,-79.428410,43.874353" projParameter="+proj=utm +zone=17 +ellps=WGS84 +datum=WGS84 +units=m +no_defs"/>

    <type id="highway.bridleway" priority="1" numLanes="1" speed="2.78" allow="pedestrian" oneway="1" width="2.00"/>
    <type id="highway.bus_guideway" priority="1" numLanes="1" speed="27.78" allow="bus" oneway="1"/>
    <type id="highway.cycleway" priority="1" numLanes="1" speed="5.56" allow="bicycle" oneway="0" width="1.00"/>
    <type id="highway.footway" priority="1" numLanes="1" speed="2.78" allow="pedestrian" oneway="1" width="2.00"/>
    <type id="highway.ford" priority="1" numLanes="1" speed="2.78" allow="army" oneway="0"/>
    <type id="highway.living_street" priority="2" numLanes="1" speed="2.78" disallow="tram rail_urban rail rail_electric rail_fast ship" oneway="0"/>
    <type id="highway.motorway" priority="14" numLanes="2" speed="39.44" allow="private emergency authority army vip passenger hov taxi bus coach delivery truck trailer motorcycle evehicle custom1 custom2" oneway="1"/>
    <type id="highway.motorway_link" priority="9" numLanes="1" speed="22.22" allow="private emergency authority army vip passenger hov taxi bus coach delivery truck trailer motorcycle evehicle custom1 custom2" oneway="1"/>
    <type id="highway.path" priority="1" numLanes="1" speed="5.56" allow="pedestrian bicycle" oneway="0" width="2.00"/>
    <type id="highway.pedestrian" priority="1" numLanes="1" speed="2.78" allow="pedestrian" oneway="1" width="2.00"/>
    <type id="highway.primary" priority="12" numLanes="2" speed="27.78" disallow="tram rail_urban rail rail_electric rail_fast ship" oneway="0"/>
    <type id="highway.primary_link" priority="7" numLanes="1" speed="22.22" disallow="tram rail_urban rail rail_electric rail_fast ship" oneway="0"/>
    <type id="highway.raceway" priority="15" numLanes="2" speed="83.33" allow="vip" oneway="0"/>
    <type id="highway.residential" priority="3" numLanes="1" speed="13.89" disallow="tram rail_urban rail rail_electric rail_fast ship" oneway="0"/>
    <type id="highway.secondary" priority="11" numLanes="1" speed="27.78" disallow="tram rail_urban rail rail_electric rail_fast ship" oneway="0"/>
    <type id="highway.secondary_link" priority="6" numLanes="1" speed="22.22" disallow="tram rail_urban rail rail_electric rail_fast ship" oneway="0"/>
    <type id="highway.service" priority="1" numLanes="1" speed="5.56" allow="pedestrian delivery bicycle" oneway="0"/>
    <type id="highway.stairs" priority="1" numLanes="1" speed="1.39" allow="pedestrian" oneway="1" width="2.00"/>
    <type id="highway.step" priority="1" numLanes="1" speed="1.39" allow="pedestrian" oneway="1" width="2.00"/>
    <type id="highway.steps" priority="1" numLanes="1" speed="1.39" allow="pedestrian" oneway="1" width="2.00"/>
    <type id="highway.tertiary" priority="10" numLanes="1" speed="22.22" disallow="tram rail_urban rail rail_electric rail_fast ship" oneway="0"/>
    <type id="highway.tertiary_link" priority="5" numLanes="1" speed="22.22" disallow="tram rail_urban rail rail_electric rail_fast ship" oneway="0"/>
    <type id="highway.track" priority="1" numLanes="1" speed="5.56" allow="pedestrian motorcycle moped bicycle" oneway="0"/>
    <type id="highway.trunk" priority="13" numLanes="2" speed="27.78" disallow="pedestrian bicycle tram rail_urban rail rail_electric rail_fast ship" oneway="0"/>
    <type id="highway.trunk_link" priority="8" numLanes="1" speed="22.22" disallow="pedestrian bicycle tram rail_urban rail rail_electric rail_fast ship" oneway="0"/>
    <type id="highway.unclassified" priority="4" numLanes="1" speed="13.89" disallow="tram rail_urban rail rail_electric rail_fast ship" oneway="0"/>
    <type id="highway.unsurfaced" priority="1" numLanes="1" speed="8.33" disallow="tram rail_urban rail rail_electric rail_fast ship" oneway="0"/>
    <type id="railway.highspeed" priority="21" numLanes="1" speed="69.44" allow="rail_fast" oneway="1"/>
    <type id="railway.light_rail" priority="19" numLanes="1" speed="27.78" allow="rail_urban" oneway="1"/>
    <type id="railway.preserved" priority="16" numLanes="1" speed="27.78" allow="rail" oneway="1"/>
    <type id="railway.rail" priority="20" numLanes="1" speed="44.44" allow="rail" oneway="1"/>
    <type id="railway.subway" priority="18" numLanes="1" speed="27.78" allow="rail_urban" oneway="1"/>
    <type id="railway.tram" priority="17" numLanes="1" speed="13.89" allow="tram" oneway="1"/>

    <edge id=":10068975944_0" function="internal">
        <lane id=":10068975944_0_0" index="0" allow="pedestrian bicycle" speed="5.56" length="6.14" width="2.00" shape="950.85,783.18 950.49,784.41 949.95,786.22 949.30,787.92 948.61,788.84"/>
    </edge>
    <edge id=":10068975944_1" function="internal">
        <lane id=":10068975944_1_0" index="0" allow="pedestrian bicycle" speed="2.89" length="2.43" width="2.00" shape="950.85,783.18 950.13,783.73 949.58,783.80 949.19,783.39 949.09,783.00"/>
    </edge>
    <edge id=":10068975944_4" function="internal">
        <lane id=":10068975944_4_0" index="0" allow="pedestrian bicycle" speed="2.89" length="0.49" width="2.00" shape="949.09,783.00 948.97,782.52"/>
    </edge>
    <edge id=":10068975944_2" function="internal">
        <lane id=":10068975944_2_0" index="0" allow="pedestrian bicycle" speed="5.56" length="5.72" width="2.00" shape="946.44,787.60 947.18,786.77 947.92,785.26 948.56,783.66 948.97,782.52"/>
    </edge>
    <edge id=":10068975944_3" function="internal">
        <lane id=":10068975944_3_0" index="0" allow="pedestrian bicycle" speed="3.12" length="3.00" width="2.00" shape="946.44,787.60 947.45,787.09 948.15,787.13 948.53,787.72 948.57,788.19"/>
    </edge>
    <edge id=":10068975944_5" function="internal">
        <lane id=":10068975944_5_0" index="0" allow="pedestrian bicycle" speed="3.12" length="0.65" width="2.00" shape="948.57,788.19 948.61,788.84"/>
    </edge>
    <edge id=":10068975947_0" function="internal">
        <lane id=":10068975947_0_0" index="0" allow="pedestrian bicycle" speed="5.56" length="6.15" width="2.00" shape="964.08,779.71 962.29,785.59"/>
    </edge>
    <edge id=":10068975947_1" function="internal">
        <lane id=":10068975947_1_0" index="0" allow="pedestrian bicycle" speed="2.89" length="2.92" width="2.00" shape="964.08,779.71 963.41,780.32 962.87,780.44 962.44,780.07 962.14,779.22"/>
    </edge>
    <edge id=":10068975947_2" function="internal">
        <lane id=":10068975947_2_0" index="0" allow="pedestrian bicycle" speed="5.56" length="6.02" width="2.00" shape="960.39,784.98 962.14,779.22"/>
    </edge>
    <edge id=":10068975947_3" function="internal">
        <lane id=":10068975947_3_0" index="0" allow="pedestrian bicycle" speed="2.89" length="2.92" width="2.00" shape="960.39,784.98 961.09,784.42 961.65,784.33 962.05,784.73 962.29,785.59"/>
    </edge>
    <edge id=":10069028467_0" function="internal">
        <lane id=":10069028467_0_0" index="0" disallow="tram rail_urban rail rail_electric rail_fast ship" speed="15.28" length="0.10" shape="1238.53,1348.43 1238.53,1348.43"/>
        <lane id=":10069028467_0_1" index="1" disallow="tram rail_urban rail rail_electric rail_fast ship" speed="15.28" length="0.10" shape="1239.45,1345.36 1239.45,1345.36"/>
    </edge>
    <edge id=":10069028467_2" function="internal">
        <lane id=":10069028467_2_0" index="0" disallow="tram rail_urban rail rail_electric rail_fast ship" speed="15.28" length="0.10" shape="1242.21,1336.17 1242.20,1336.17"/>
        <lane id=":10069028467_2_1" index="1" disallow="tram rail_urban rail rail_electric rail_fast ship" speed="15.28" length="0.10" shape="1241.29,1339.23 1241.29,1339.23"/>
        <lane id=":10069028467_2_2" index="2" disallow="tram rail_urban rail rail_electric rail_fast ship" speed="15.28" length="0.10" shape="1240.37,1342.30 1240.37,1342.30"/>
    </edge>
    <edge id=":1362104671_0" function="internal">
        <lane id=":1362104671_0_0" index="0" allow="pedestrian bicycle" speed="4.02" length="5.64" width="2.00" shape="553.95,1048.15 553.36,1046.33 552.70,1045.70 551.98,1046.26 551.20,1048.00"/>
    </edge>
    <edge id=":1362104671_1" function="internal">
        <lane id=":1362104671_1_0" index="0" allow="pedestrian bicycle" speed="5.56" length="10.88" width="2.00" shape="553.95,1048.15 553.08,1045.12 552.35,1042.84 552.08,1040.57 552.56,1037.56"/>
    </edge>
    <edge id=":1362104671_2" function="internal">
        <lane id=":1362104671_2_0" index="0" allow="pedestrian bicycle" speed="2.89" length="2.92" width="2.00" shape="553.95,1048.15 554.27,1047.30 554.70,1046.94 555.24,1047.08 555.90,1047.69"/>
    </edge>
    <edge id=":1362104671_3" function="internal">
        <lane id=":1362104671_3_0" index="0" allow="pedestrian bicycle" speed="5.56" length="9.94" width="2.00" shape="554.49,1038.06 554.04,1040.89 554.32,1042.87 555.04,1044.85 555.90,1047.69"/>
    </edge>
    <edge id=":1362104671_4" function="internal">
        <lane id=":1362104671_4_0" index="0" allow="pedestrian bicycle" speed="5.56" length="10.47" width="2.00" shape="554.49,1038.06 551.20,1048.00"/>
    </edge>
    <edge id=":1362104671_5" function="internal">
        <lane id=":1362104671_5_0" index="0" allow="pedestrian bicycle" speed="2.89" length="2.92" width="2.00" shape="554.49,1038.06 553.82,1038.66 553.27,1038.78 552.85,1038.41 552.56,1037.56"/>
    </edge>
    <edge id=":1362104671_6" function="internal">
        <lane id=":1362104671_6_0" index="0" allow="pedestrian bicycle" speed="5.56" length="10.31" width="2.00" shape="549.31,1047.34 552.56,1037.56"/>
    </edge>
    <edge id=":1362104671_7" function="internal">
        <lane id=":1362104671_7_0" index="0" allow="pedestrian bicycle" speed="5.56" length="13.50" width="2.00" shape="549.31,1047.34 551.18,1043.17 552.91,1041.84 554.48,1043.34 555.90,1047.69"/>
    </edge>
    <edge id=":1362104671_8" function="internal">
        <lane id=":1362104671_8_0" index="0" allow="pedestrian bicycle" speed="2.89" length="2.92" width="2.00" shape="549.31,1047.34 550.03,1046.80 550.58,1046.72 550.97,1047.13 551.20,1048.00"/>
    </edge>
    <edge id=":1362104673_0" function="internal">
        <lane id=":1362104673_0_0" index="0" allow="pedestrian bicycle" speed="2.89" length="2.92" width="2.00" shape="541.74,1075.09 541.02,1075.63 540.47,1075.70 540.08,1075.30 539.86,1074.43"/>
    </edge>
    <edge id=":1362130340_0" function="internal">
        <lane id=":1362130340_0_0" index="0" allow="pedestrian bicycle" speed="5.35" length="4.94" width="2.00" shape="964.55,747.28 963.01,747.44 961.84,747.86 961.02,748.55 960.56,749.52"/>
    </edge>
    <edge id=":1362130340_1" function="internal">
        <lane id=":1362130340_1_0" index="0" allow="pedestrian bicycle" speed="5.55" length="8.18" width="2.00" shape="964.55,747.28 962.22,746.98 960.78,746.00 960.22,744.35 960.55,742.02"/>
    </edge>
    <edge id=":1362130340_2" function="internal">
        <lane id=":1362130340_2_0" index="0" allow="pedestrian bicycle" speed="2.89" length="2.92" width="2.00" shape="964.55,747.28 963.79,746.79 963.54,746.29 963.78,745.79 964.53,745.28"/>
    </edge>
    <edge id=":1362130340_3" function="internal">
        <lane id=":1362130340_3_0" index="0" allow="pedestrian bicycle" speed="4.14" length="4.20" width="2.00" shape="962.47,742.58 962.30,743.77 962.59,744.62 963.33,745.13 964.53,745.28"/>
    </edge>
    <edge id=":1362130340_4" function="internal">
        <lane id=":1362130340_4_0" index="0" allow="pedestrian bicycle" speed="5.56" length="7.20" width="2.00" shape="962.47,742.58 960.56,749.52"/>
    </edge>
    <edge id=":1362130340_5" function="internal">
        <lane id=":1362130340_5_0" index="0" allow="pedestrian bicycle" speed="2.89" length="2.92" width="2.00" shape="962.47,742.58 961.78,743.16 961.23,743.26 960.82,742.88 960.55,742.02"/>
    </edge>
    <edge id=":1362130340_6" function="internal">
        <lane id=":1362130340_6_0" index="0" allow="pedestrian bicycle" speed="5.56" length="7.26" width="2.00" shape="958.62,749.02 960.55,742.02"/>
    </edge>
    <edge id=":1362130340_7" function="internal">
        <lane id=":1362130340_7_0" index="0" allow="pedestrian bicycle" speed="5.56" length="7.57" width="2.00" shape="958.62,749.02 959.34,747.41 960.57,746.25 962.30,745.54 964.53,745.28"/>
    </edge>
    <edge id=":1362130340_8" function="internal">
        <lane id=":1362130340_8_0" index="0" allow="pedestrian bicycle" speed="2.89" length="2.92" width="2.00" shape="958.62,749.02 959.29,748.42 959.84,748.30 960.26,748.67 960.56,749.52"/>
    </edge>
    <edge id=":1362132000_0" function="internal">
        <lane id=":1362132000_0_0" index="0" allow="pedestrian delivery bicycle" speed="5.04" length="5.00" shape="1441.96,901.16 1440.62,901.41 1439.67,902.02 1439.13,903.02 1438.98,904.38"/>
    </edge>
    <edge id=":1362132000_1" function="internal">
        <lane id=":1362132000_1_0" index="0" disallow="tram rail_urban rail rail_electric rail_fast ship" speed="11.11" length="6.20" shape="1441.96,901.16 1435.77,901.40"/>
    </edge>
    <edge id=":1362132000_2" function="internal">
        <lane id=":1362132000_2_0" index="0" disallow="tram rail_urban rail rail_electric rail_fast ship" speed="11.11" length="6.20" shape="1435.52,895.00 1441.72,894.76"/>
        <lane id=":1362132000_2_1" index="1" disallow="tram rail_urban rail rail_electric rail_fast ship" speed="11.11" length="6.20" shape="1435.64,898.20 1441.84,897.96"/>
    </edge>
    <edge id=":1362132000_4" function="internal">
        <lane id=":1362132000_4_0" index="0" allow="pedestrian delivery bicycle" speed="6.08" length="7.76" shape="1435.64,898.20 1437.02,898.54 1438.03,899.69 1438.69,901.63 1438.98,904.38"/>
    </edge>
    <edge id=":1362132001_0" function="internal">
        <lane id=":1362132001_0_0" index="0" allow="pedestrian delivery bicycle" speed="5.04" length="5.01" shape="1426.61,904.87 1426.35,903.52 1425.72,902.58 1424.72,902.04 1423.36,901.92"/>
    </edge>
    <edge id=":1362132001_1" function="internal">
        <lane id=":1362132001_1_0" index="0" allow="pedestrian delivery bicycle" speed="6.07" length="7.79" shape="1426.61,904.87 1426.67,902.10 1427.17,900.11 1428.09,898.89 1429.45,898.44"/>
    </edge>
    <edge id=":1362132001_2" function="internal">
        <lane id=":1362132001_2_0" index="0" disallow="tram rail_urban rail rail_electric rail_fast ship" speed="11.11" length="6.22" shape="1429.57,901.64 1423.36,901.92"/>
    </edge>
    <edge id=":1362132001_3" function="internal">
        <lane id=":1362132001_3_0" index="0" disallow="tram rail_urban rail rail_electric rail_fast ship" speed="11.11" length="6.28" shape="1423.03,895.53 1429.33,895.24"/>
        <lane id=":1362132001_3_1" index="1" disallow="tram rail_urban rail rail_electric rail_fast ship" speed="11.11" length="6.28" shape="1423.19,898.72 1429.45,898.44"/>
    </edge>
    <edge id=":1362132004_0" function="internal">
        <lane id=":1362132004_0_0" index="0" allow="pedestrian delivery bicycle" speed="5.56" length="6.52" shape="1498.08,921.67 1496.84,922.03 1495.79,922.95 1494.93,924.42 1494.25,926.44"/>
    </edge>
    <edge id=":1362132004_1" function="internal">
        <lane id=":1362132004_1_0" index="0" allow="pedestrian delivery bicycle" speed="5.56" length="9.73" shape="1498.08,921.67 1488.37,922.30"/>
    </edge>
    <edge id=":1362132004_2" function="internal">
        <lane id=":1362132004_2_0" index="0" allow="pedestrian delivery bicycle" speed="3.65" length="4.67" shape="1498.08,921.67 1496.83,920.95 1496.38,920.18 1496.73,919.35 1497.87,918.48"/>
    </edge>
    <edge id=":1362132004_3" function="internal">
        <lane id=":1362132004_3_0" index="0" allow="pedestrian delivery bicycle" speed="5.56" length="9.73" shape="1488.16,919.11 1497.87,918.48"/>
    </edge>
    <edge id=":1362132004_4" function="internal">
        <lane id=":1362132004_4_0" index="0" allow="pedestrian delivery bicycle" speed="5.56" length="11.89" shape="1488.16,919.11 1491.58,919.37 1493.73,920.68 1494.62,923.04 1494.25,926.44"/>
    </edge>
    <edge id=":1362132004_5" function="internal">
        <lane id=":1362132004_5_0" index="0" allow="pedestrian delivery bicycle" speed="3.65" length="4.67" shape="1488.16,919.11 1489.41,919.83 1489.86,920.60 1489.51,921.43 1488.37,922.30"/>
    </edge>
    <edge id=":1362132004_6" function="internal">
        <lane id=":1362132004_6_0" index="0" allow="pedestrian delivery bicycle" speed="4.77" length="5.43" shape="1491.15,925.65 1491.32,924.09 1490.91,923.02 1489.93,922.42 1488.37,922.30"/>
    </edge>
    <edge id=":1362132004_7" function="internal">
        <lane id=":1362132004_7_0" index="0" allow="pedestrian delivery bicycle" speed="5.56" length="10.55" shape="1491.15,925.65 1492.22,922.63 1493.70,920.43 1495.59,919.05 1497.87,918.48"/>
    </edge>
    <edge id=":1362132004_8" function="internal">
        <lane id=":1362132004_8_0" index="0" allow="pedestrian delivery bicycle" speed="3.65" length="4.67" shape="1491.15,925.65 1492.22,924.69 1493.09,924.50 1493.77,925.08 1494.25,926.44"/>
    </edge>
    <edge id=":1362132005_0" function="internal">
        <lane id=":1362132005_0_0" index="0" allow="pedestrian delivery bicycle" speed="5.56" length="6.19" shape="1443.00,925.27 1436.82,925.68"/>
    </edge>
    <edge id=":1362132005_1" function="internal">
        <lane id=":1362132005_1_0" index="0" allow="pedestrian delivery bicycle" speed="3.65" length="4.67" shape="1443.00,925.27 1441.75,924.55 1441.30,923.78 1441.64,922.95 1442.79,922.08"/>
    </edge>
    <edge id=":1362132005_2" function="internal">
        <lane id=":1362132005_2_0" index="0" allow="pedestrian delivery bicycle" speed="5.01" length="5.03" shape="1439.53,919.14 1439.78,920.50 1440.40,921.44 1441.41,921.97 1442.79,922.08"/>
    </edge>
    <edge id=":1362132005_3" function="internal">
        <lane id=":1362132005_3_0" index="0" allow="pedestrian delivery bicycle" speed="5.56" length="7.76" shape="1439.53,919.14 1439.45,921.92 1438.97,923.94 1438.09,925.19 1436.82,925.68"/>
    </edge>
    <edge id=":1362132005_4" function="internal">
        <lane id=":1362132005_4_0" index="0" allow="pedestrian delivery bicycle" speed="5.56" length="6.20" shape="1436.60,922.49 1442.79,922.08"/>
    </edge>
    <edge id=":1362132005_5" function="internal">
        <lane id=":1362132005_5_0" index="0" allow="pedestrian delivery bicycle" speed="3.65" length="4.67" shape="1436.60,922.49 1437.85,923.20 1438.31,923.97 1437.96,924.80 1436.82,925.68"/>
    </edge>
    <edge id=":1362132009_0" function="internal">
        <lane id=":1362132009_0_0" index="0" allow="pedestrian delivery bicycle" speed="5.56" length="7.33" shape="1358.34,932.29 1357.04,929.76 1355.83,928.11 1354.69,927.33 1353.63,927.43"/>
    </edge>
    <edge id=":1362132009_1" function="internal">
        <lane id=":1362132009_1_0" index="0" allow="pedestrian delivery bicycle" speed="5.56" length="12.57" shape="1358.34,932.29 1357.30,928.74 1357.83,926.21 1359.92,924.67 1363.58,924.15"/>
    </edge>
    <edge id=":1362132009_2" function="internal">
        <lane id=":1362132009_2_0" index="0" allow="pedestrian delivery bicycle" speed="3.65" length="4.67" shape="1358.34,932.29 1358.57,930.87 1359.14,930.17 1360.03,930.21 1361.26,930.98"/>
    </edge>
    <edge id=":1362132009_3" function="internal">
        <lane id=":1362132009_3_0" index="0" allow="pedestrian delivery bicycle" speed="4.72" length="5.61" shape="1363.59,927.35 1361.96,927.58 1361.03,928.27 1360.79,929.40 1361.26,930.98"/>
    </edge>
    <edge id=":1362132009_4" function="internal">
        <lane id=":1362132009_4_0" index="0" allow="pedestrian delivery bicycle" speed="5.56" length="10.21" shape="1363.59,927.35 1360.56,927.05 1358.40,926.53 1356.35,926.44 1353.63,927.43"/>
    </edge>
    <edge id=":1362132009_5" function="internal">
        <lane id=":1362132009_5_0" index="0" allow="pedestrian delivery bicycle" speed="3.65" length="4.67" shape="1363.59,927.35 1362.39,926.55 1361.99,925.76 1362.38,924.95 1363.58,924.15"/>
    </edge>
    <edge id=":1362132009_6" function="internal">
        <lane id=":1362132009_6_0" index="0" allow="pedestrian delivery bicycle" speed="5.56" length="9.99" shape="1353.59,924.20 1363.58,924.15"/>
    </edge>
    <edge id=":1362132009_7" function="internal">
        <lane id=":1362132009_7_0" index="0" allow="pedestrian delivery bicycle" speed="5.56" length="10.81" shape="1353.59,924.20 1355.80,924.61 1357.81,925.88 1359.63,928.00 1361.26,930.98"/>
    </edge>
    <edge id=":1362132009_8" function="internal">
        <lane id=":1362132009_8_0" index="0" allow="pedestrian delivery bicycle" speed="3.90" length="4.72" shape="1353.59,924.20 1354.81,924.99 1355.23,925.79 1354.83,926.60 1353.63,927.43"/>
    </edge>
    <edge id=":1362132011_0" function="internal">
        <lane id=":1362132011_0_0" index="0" allow="pedestrian delivery bicycle" speed="5.32" length="4.99" shape="1381.54,929.30 1380.27,929.57 1379.33,930.20 1378.70,931.19 1378.39,932.54"/>
    </edge>
    <edge id=":1362132011_1" function="internal">
        <lane id=":1362132011_1_0" index="0" allow="pedestrian delivery bicycle" speed="5.56" length="9.02" shape="1381.54,929.30 1378.87,929.45 1377.04,929.44 1375.21,929.21 1372.58,928.73"/>
    </edge>
    <edge id=":1362132011_2" function="internal">
        <lane id=":1362132011_2_0" index="0" allow="pedestrian delivery bicycle" speed="3.65" length="4.67" shape="1381.54,929.30 1380.29,928.58 1379.84,927.81 1380.19,926.99 1381.33,926.11"/>
    </edge>
    <edge id=":1362132011_3" function="internal">
        <lane id=":1362132011_3_0" index="0" allow="pedestrian delivery bicycle" speed="5.56" length="8.21" shape="1373.18,925.58 1375.57,926.02 1377.23,926.23 1378.90,926.25 1381.33,926.11"/>
    </edge>
    <edge id=":1362132011_4" function="internal">
        <lane id=":1362132011_4_0" index="0" allow="pedestrian delivery bicycle" speed="5.56" length="9.73" shape="1373.18,925.58 1375.68,926.43 1377.38,927.87 1378.28,929.91 1378.39,932.54"/>
    </edge>
    <edge id=":1362132011_5" function="internal">
        <lane id=":1362132011_5_0" index="0" allow="pedestrian delivery bicycle" speed="3.65" length="4.67" shape="1373.18,925.58 1374.21,926.59 1374.45,927.45 1373.91,928.16 1372.58,928.73"/>
    </edge>
    <edge id=":1362132011_6" function="internal">
        <lane id=":1362132011_6_0" index="0" allow="pedestrian delivery bicycle" speed="5.15" length="4.89" shape="1375.20,932.23 1375.15,930.90 1374.69,929.88 1373.84,929.15 1372.58,928.73"/>
    </edge>
    <edge id=":1362132011_7" function="internal">
        <lane id=":1362132011_7_0" index="0" allow="pedestrian delivery bicycle" speed="5.56" length="9.56" shape="1375.20,932.23 1375.80,929.69 1377.02,927.82 1378.86,926.63 1381.33,926.11"/>
    </edge>
    <edge id=":1362132011_8" function="internal">
        <lane id=":1362132011_8_0" index="0" allow="pedestrian delivery bicycle" speed="3.65" length="4.67" shape="1375.20,932.23 1376.12,931.11 1376.95,930.79 1377.71,931.27 1378.39,932.54"/>
    </edge>
    <edge id=":1362132013_0" function="internal">
        <lane id=":1362132013_0_0" index="0" allow="pedestrian delivery bicycle" speed="5.56" length="9.38" shape="1491.80,936.02 1489.81,945.18"/>
    </edge>
    <edge id=":1362132013_1" function="internal">
        <lane id=":1362132013_1_0" index="0" allow="pedestrian delivery bicycle" speed="5.56" length="10.32" shape="1491.80,936.02 1490.84,938.15 1489.18,939.74 1486.82,940.80 1483.77,941.31"/>
    </edge>
    <edge id=":1362132013_2" function="internal">
        <lane id=":1362132013_2_0" index="0" allow="pedestrian delivery bicycle" speed="3.65" length="4.67" shape="1491.80,936.02 1490.73,936.98 1489.86,937.17 1489.18,936.59 1488.70,935.23"/>
    </edge>
    <edge id=":1362132013_3" function="internal">
        <lane id=":1362132013_3_0" index="0" allow="pedestrian delivery bicycle" speed="5.56" length="6.31" shape="1483.54,938.12 1485.55,937.82 1487.08,937.24 1488.13,936.37 1488.70,935.23"/>
    </edge>
    <edge id=":1362132013_4" function="internal">
        <lane id=":1362132013_4_0" index="0" allow="pedestrian delivery bicycle" speed="5.56" length="11.57" shape="1483.54,938.12 1486.83,938.35 1488.97,939.61 1489.97,941.88 1489.81,945.18"/>
    </edge>
    <edge id=":1362132013_5" function="internal">
        <lane id=":1362132013_5_0" index="0" allow="pedestrian delivery bicycle" speed="3.65" length="4.67" shape="1483.54,938.12 1484.79,938.83 1485.25,939.60 1484.91,940.43 1483.77,941.31"/>
    </edge>
    <edge id=":1362132013_6" function="internal">
        <lane id=":1362132013_6_0" index="0" allow="pedestrian delivery bicycle" speed="4.81" length="5.35" shape="1486.67,944.58 1486.74,943.05 1486.28,942.00 1485.29,941.42 1483.77,941.31"/>
    </edge>
    <edge id=":1362132013_7" function="internal">
        <lane id=":1362132013_7_0" index="0" allow="pedestrian delivery bicycle" speed="5.56" length="9.57" shape="1486.67,944.58 1488.70,935.23"/>
    </edge>
    <edge id=":1362132013_8" function="internal">
        <lane id=":1362132013_8_0" index="0" allow="pedestrian delivery bicycle" speed="3.65" length="4.67" shape="1486.67,944.58 1487.68,943.55 1488.54,943.31 1489.25,943.85 1489.81,945.18"/>
    </edge>
    <edge id=":1362132015_0" function="internal">
        <lane id=":1362132015_0_0" index="0" allow="pedestrian delivery bicycle" speed="3.65" length="4.67" shape="1367.67,945.29 1367.43,946.71 1366.86,947.40 1365.97,947.36 1364.75,946.59"/>
    </edge>
    <edge id=":1362132017_0" function="internal">
        <lane id=":1362132017_0_0" index="0" allow="pedestrian delivery bicycle" speed="5.56" length="7.03" shape="1380.71,948.74 1378.36,949.05 1376.56,949.60 1375.29,950.40 1374.56,951.45"/>
    </edge>
    <edge id=":1362132017_1" function="internal">
        <lane id=":1362132017_1_0" index="0" allow="pedestrian delivery bicycle" speed="5.56" length="12.08" shape="1380.71,948.74 1377.62,948.43 1375.53,947.01 1374.45,944.45 1374.36,940.78"/>
    </edge>
    <edge id=":1362132017_2" function="internal">
        <lane id=":1362132017_2_0" index="0" allow="pedestrian delivery bicycle" speed="3.65" length="4.67" shape="1380.71,948.74 1379.45,948.03 1379.00,947.26 1379.34,946.43 1380.48,945.55"/>
    </edge>
    <edge id=":1362132017_3" function="internal">
        <lane id=":1362132017_3_0" index="0" allow="pedestrian delivery bicycle" speed="5.01" length="5.56" shape="1377.46,941.97 1377.51,943.63 1378.03,944.77 1379.02,945.41 1380.48,945.55"/>
    </edge>
    <edge id=":1362132017_4" function="internal">
        <lane id=":1362132017_4_0" index="0" allow="pedestrian delivery bicycle" speed="5.56" length="9.98" shape="1377.46,941.97 1377.06,944.88 1376.51,946.83 1375.71,948.71 1374.56,951.45"/>
    </edge>
    <edge id=":1362132017_5" function="internal">
        <lane id=":1362132017_5_0" index="0" allow="pedestrian delivery bicycle" speed="3.70" length="4.85" shape="1377.46,941.97 1376.24,942.83 1375.32,942.92 1374.69,942.24 1374.36,940.78"/>
    </edge>
    <edge id=":1362132017_6" function="internal">
        <lane id=":1362132017_6_0" index="0" allow="pedestrian delivery bicycle" speed="5.56" length="9.96" shape="1371.58,950.27 1372.71,947.54 1373.47,945.65 1373.98,943.69 1374.36,940.78"/>
    </edge>
    <edge id=":1362132017_7" function="internal">
        <lane id=":1362132017_7_0" index="0" allow="pedestrian delivery bicycle" speed="5.56" length="10.61" shape="1371.58,950.27 1372.76,948.40 1374.64,946.99 1377.21,946.04 1380.48,945.55"/>
    </edge>
    <edge id=":1362132017_8" function="internal">
        <lane id=":1362132017_8_0" index="0" allow="pedestrian delivery bicycle" speed="3.65" length="4.67" shape="1371.58,950.27 1372.77,949.45 1373.66,949.37 1374.26,950.04 1374.56,951.45"/>
    </edge>
    <edge id=":1362132021_0" function="internal">
        <lane id=":1362132021_0_0" index="0" allow="pedestrian delivery bicycle" speed="5.56" length="9.61" shape="1487.90,955.08 1486.09,964.51"/>
    </edge>
    <edge id=":1362132021_1" function="internal">