<?xml version="1.0" encoding="UTF-8"?>

<!-- generated on 2023-10-16 20:54:19 by Eclipse SUMO netconvert Version 1.18.0
<configuration xmlns:xsi="http://www.w3.org/2001/XMLSchema-instance" xsi:noNamespaceSchemaLocation="http://sumo.dlr.de/xsd/netconvertConfiguration.xsd">

    <input>
        <type-files value="${SUMO_HOME}/data/typemap/osmNetconvert.typ.xml"/>
        <osm-files value="osm_bbox.osm.xml.gz"/>
    </input>

    <output>
        <output-file value="osm.net.xml.gz"/>
        <output.street-names value="true"/>
        <output.original-names value="true"/>
    </output>

    <projection>
        <proj.utm value="true"/>
    </projection>

    <processing>
        <geometry.remove value="true"/>
        <roundabouts.guess value="true"/>
    </processing>

    <tls_building>
        <tls.discard-simple value="true"/>
        <tls.join value="true"/>
        <tls.guess-signals value="true"/>
        <tls.default-type value="actuated"/>
    </tls_building>

    <ramp_guessing>
        <ramps.guess value="true"/>
    </ramp_guessing>

    <junctions>
        <junctions.join value="true"/>
        <junctions.corner-detail value="5"/>
    </junctions>

</configuration>
-->

<net version="1.16" junctionCornerDetail="5" limitTurnSpeed="5.50" xmlns:xsi="http://www.w3.org/2001/XMLSchema-instance" xsi:noNamespaceSchemaLocation="http://sumo.dlr.de/xsd/net_file.xsd">

    <location netOffset="-623496.11,-4857289.10" convBoundary="0.00,0.00,2808.72,2134.75" origBoundary="-79.462954,43.858116,-79.428092,43.877163" projParameter="+proj=utm +zone=17 +ellps=WGS84 +datum=WGS84 +units=m +no_defs"/>

    <type id="highway.footway" priority="1" numLanes="1" speed="2.78" allow="pedestrian" oneway="1" width="2.00"/>
    <type id="highway.path" priority="1" numLanes="1" speed="5.56" allow="pedestrian bicycle" oneway="0" width="2.00"/>
    <type id="highway.residential" priority="3" numLanes="1" speed="13.89" disallow="tram rail_urban rail rail_electric rail_fast ship" oneway="0"/>
    <type id="highway.secondary" priority="11" numLanes="1" speed="27.78" disallow="tram rail_urban rail rail_electric rail_fast ship" oneway="0"/>
    <type id="highway.service" priority="1" numLanes="1" speed="5.56" allow="pedestrian delivery bicycle" oneway="0"/>
    <type id="highway.steps" priority="1" numLanes="1" speed="1.39" allow="pedestrian" oneway="1" width="2.00"/>
    <type id="highway.tertiary" priority="10" numLanes="1" speed="22.22" disallow="tram rail_urban rail rail_electric rail_fast ship" oneway="0"/>
    <type id="highway.track" priority="1" numLanes="1" speed="5.56" allow="pedestrian motorcycle moped bicycle" oneway="0"/>
    <type id="highway.unclassified" priority="4" numLanes="1" speed="13.89" disallow="tram rail_urban rail rail_electric rail_fast ship" oneway="0"/>

    <edge id=":10068975944_0" function="internal">
        <lane id=":10068975944_0_0" index="0" allow="pedestrian bicycle" speed="5.56" length="6.13" width="2.00" shape="1394.70,783.18 1394.34,784.41 1393.80,786.21 1393.16,787.92 1392.47,788.84"/>
    </edge>
    <edge id=":10068975944_1" function="internal">
        <lane id=":10068975944_1_0" index="0" allow="pedestrian bicycle" speed="2.89" length="2.43" width="2.00" shape="1394.70,783.18 1393.97,783.72 1393.42,783.79 1393.03,783.39 1392.93,783.00"/>
    </edge>
    <edge id=":10068975944_4" function="internal">
        <lane id=":10068975944_4_0" index="0" allow="pedestrian bicycle" speed="2.89" length="0.49" width="2.00" shape="1392.93,783.00 1392.81,782.52"/>
    </edge>
    <edge id=":10068975944_2" function="internal">
        <lane id=":10068975944_2_0" index="0" allow="pedestrian bicycle" speed="5.56" length="5.73" width="2.00" shape="1390.28,787.60 1391.02,786.77 1391.77,785.27 1392.40,783.65 1392.81,782.52"/>
    </edge>
    <edge id=":10068975944_3" function="internal">
        <lane id=":10068975944_3_0" index="0" allow="pedestrian bicycle" speed="3.12" length="3.03" width="2.00" shape="1390.28,787.60 1391.29,787.09 1391.99,787.12 1392.39,787.71 1392.42,788.20"/>
    </edge>
    <edge id=":10068975944_5" function="internal">
        <lane id=":10068975944_5_0" index="0" allow="pedestrian bicycle" speed="3.12" length="0.64" width="2.00" shape="1392.42,788.20 1392.47,788.84"/>
    </edge>
    <edge id=":10068975947_0" function="internal">
        <lane id=":10068975947_0_0" index="0" allow="pedestrian bicycle" speed="5.56" length="6.15" width="2.00" shape="1407.93,779.71 1406.14,785.59"/>
    </edge>
    <edge id=":10068975947_1" function="internal">
        <lane id=":10068975947_1_0" index="0" allow="pedestrian bicycle" speed="2.89" length="2.92" width="2.00" shape="1407.93,779.71 1407.26,780.32 1406.71,780.44 1406.29,780.07 1405.99,779.22"/>
    </edge>
    <edge id=":10068975947_2" function="internal">
        <lane id=":10068975947_2_0" index="0" allow="pedestrian bicycle" speed="5.56" length="6.02" width="2.00" shape="1404.24,784.98 1405.99,779.22"/>
    </edge>
    <edge id=":10068975947_3" function="internal">
        <lane id=":10068975947_3_0" index="0" allow="pedestrian bicycle" speed="2.89" length="2.92" width="2.00" shape="1404.24,784.98 1404.94,784.42 1405.49,784.33 1405.89,784.73 1406.14,785.59"/>
    </edge>
    <edge id=":10069028467_0" function="internal">
        <lane id=":10069028467_0_0" index="0" disallow="tram rail_urban rail rail_electric rail_fast ship" speed="15.28" length="0.10" shape="1682.38,1348.43 1682.38,1348.43"/>
        <lane id=":10069028467_0_1" index="1" disallow="tram rail_urban rail rail_electric rail_fast ship" speed="15.28" length="0.10" shape="1683.30,1345.36 1683.30,1345.36"/>
    </edge>
    <edge id=":10069028467_2" function="internal">
        <lane id=":10069028467_2_0" index="0" disallow="tram rail_urban rail rail_electric rail_fast ship" speed="15.28" length="0.10" shape="1686.06,1336.17 1686.06,1336.17"/>
        <lane id=":10069028467_2_1" index="1" disallow="tram rail_urban rail rail_electric rail_fast ship" speed="15.28" length="0.10" shape="1685.14,1339.23 1685.14,1339.23"/>
        <lane id=":10069028467_2_2" index="2" disallow="tram rail_urban rail rail_electric rail_fast ship" speed="15.28" length="0.10" shape="1684.22,1342.30 1684.22,1342.30"/>
    </edge>
    <edge id=":10884014279_0" function="internal">
        <lane id=":10884014279_0_0" index="0" allow="pedestrian delivery bicycle" speed="5.56" length="5.02" shape="1844.03,1284.13 1848.84,1285.58"/>
    </edge>
    <edge id=":10884014280_0" function="internal">
        <lane id=":10884014280_0_0" index="0" allow="pedestrian delivery bicycle" speed="5.56" length="5.04" shape="1846.03,1294.68 1841.24,1293.10"/>
    </edge>
    <edge id=":1362104671_0" function="internal">
        <lane id=":1362104671_0_0" index="0" allow="pedestrian bicycle" speed="4.02" length="5.64" width="2.00" shape="997.80,1048.14 997.20,1046.33 996.55,1045.70 995.83,1046.26 995.04,1048.00"/>
    </edge>
    <edge id=":1362104671_1" function="internal">
        <lane id=":1362104671_1_0" index="0" allow="pedestrian bicycle" speed="5.56" length="10.87" width="2.00" shape="997.80,1048.14 996.92,1045.12 996.20,1042.84 995.93,1040.57 996.40,1037.56"/>
    </edge>
    <edge id=":1362104671_2" function="internal">
        <lane id=":1362104671_2_0" index="0" allow="pedestrian bicycle" speed="2.89" length="2.92" width="2.00" shape="997.80,1048.14 998.11,1047.30 998.54,1046.94 999.09,1047.07 999.74,1047.69"/>
    </edge>
    <edge id=":1362104671_3" function="internal">
        <lane id=":1362104671_3_0" index="0" allow="pedestrian bicycle" speed="5.56" length="9.93" width="2.00" shape="998.34,1038.07 997.88,1040.89 998.17,1042.87 998.89,1044.85 999.74,1047.69"/>
    </edge>
    <edge id=":1362104671_4" function="internal">
        <lane id=":1362104671_4_0" index="0" allow="pedestrian bicycle" speed="5.56" length="10.46" width="2.00" shape="998.34,1038.07 995.04,1048.00"/>
    </edge>
    <edge id=":1362104671_5" function="internal">
        <lane id=":1362104671_5_0" index="0" allow="pedestrian bicycle" speed="2.89" length="2.92" width="2.00" shape="998.34,1038.07 997.66,1038.67 997.12,1038.78 996.70,1038.41 996.40,1037.56"/>
    </edge>
    <edge id=":1362104671_6" function="internal">
        <lane id=":1362104671_6_0" index="0" allow="pedestrian bicycle" speed="5.56" length="10.30" width="2.00" shape="993.16,1047.34 996.40,1037.56"/>
    </edge>
    <edge id=":1362104671_7" function="internal">
        <lane id=":1362104671_7_0" index="0" allow="pedestrian bicycle" speed="5.56" length="13.50" width="2.00" shape="993.16,1047.34 995.03,1043.17 996.75,1041.84 998.32,1043.34 999.74,1047.69"/>
    </edge>
    <edge id=":1362104671_8" function="internal">
        <lane id=":1362104671_8_0" index="0" allow="pedestrian bicycle" speed="2.89" length="2.92" width="2.00" shape="993.16,1047.34 993.87,1046.79 994.43,1046.72 994.82,1047.12 995.04,1048.00"/>
    </edge>
    <edge id=":1362104673_0" function="internal">
        <lane id=":1362104673_0_0" index="0" allow="pedestrian bicycle" speed="2.89" length="2.92" width="2.00" shape="985.59,1075.09 984.87,1075.63 984.31,1075.70 983.92,1075.30 983.70,1074.43"/>
    </edge>
    <edge id=":1362130340_0" function="internal">
        <lane id=":1362130340_0_0" index="0" allow="pedestrian bicycle" speed="5.35" length="4.93" width="2.00" shape="1408.39,747.28 1406.86,747.44 1405.68,747.86 1404.86,748.55 1404.40,749.52"/>
    </edge>
    <edge id=":1362130340_1" function="internal">
        <lane id=":1362130340_1_0" index="0" allow="pedestrian bicycle" speed="5.55" length="8.18" width="2.00" shape="1408.39,747.28 1406.07,746.98 1404.62,746.00 1404.07,744.34 1404.40,742.02"/>
    </edge>
    <edge id=":1362130340_2" function="internal">
        <lane id=":1362130340_2_0" index="0" allow="pedestrian bicycle" speed="2.89" length="2.92" width="2.00" shape="1408.39,747.28 1407.64,746.79 1407.38,746.29 1407.63,745.79 1408.37,745.28"/>
    </edge>
    <edge id=":1362130340_3" function="internal">
        <lane id=":1362130340_3_0" index="0" allow="pedestrian bicycle" speed="4.14" length="4.20" width="2.00" shape="1406.32,742.58 1406.15,743.77 1406.44,744.62 1407.18,745.12 1408.37,745.28"/>
    </edge>
    <edge id=":1362130340_4" function="internal">
        <lane id=":1362130340_4_0" index="0" allow="pedestrian bicycle" speed="5.56" length="7.20" width="2.00" shape="1406.32,742.58 1404.40,749.52"/>
    </edge>
    <edge id=":1362130340_5" function="internal">
        <lane id=":1362130340_5_0" index="0" allow="pedestrian bicycle" speed="2.89" length="2.92" width="2.00" shape="1406.32,742.58 1405.63,743.16 1405.08,743.26 1404.67,742.88 1404.40,742.02"/>
    </edge>
    <edge id=":1362130340_6" function="internal">
        <lane id=":1362130340_6_0" index="0" allow="pedestrian bicycle" speed="5.56" length="7.26" width="2.00" shape="1402.47,749.02 1404.40,742.02"/>
    </edge>
    <edge id=":1362130340_7" function="internal">
        <lane id=":1362130340_7_0" index="0" allow="pedestrian bicycle" speed="5.56" length="7.57" width="2.00" shape="1402.47,749.02 1403.19,747.40 1404.41,746.24 1406.14,745.54 1408.37,745.28"/>
    </edge>
    <edge id=":1362130340_8" function="internal">
        <lane id=":1362130340_8_0" index="0" allow="pedestrian bicycle" speed="2.89" length="2.92" width="2.00" shape="1402.47,749.02 1403.14,748.42 1403.68,748.30 1404.10,748.67 1404.40,749.52"/>
    </edge>
    <edge id=":1362130349_0" function="internal">
        <lane id=":1362130349_0_0" index="0" allow="pedestrian bicycle" speed="5.56" length="4.83" width="2.00" shape="880.63,837.89 879.40,837.25 878.43,837.06 877.42,837.19 876.03,837.53"/>
    </edge>
    <edge id=":1362130349_1" function="internal">
        <lane id=":1362130349_1_0" index="0" allow="pedestrian bicycle" speed="5.56" length="6.30" width="2.00" shape="880.63,837.89 879.53,837.00 878.64,835.82 877.97,834.36 877.52,832.61"/>
    </edge>
    <edge id=":1362130349_2" function="internal">
        <lane id=":1362130349_2_0" index="0" allow="pedestrian bicycle" speed="5.56" length="6.30" width="2.00" shape="880.63,837.89 879.53,837.00 878.64,835.82 877.97,834.36 877.52,832.61"/>
    </edge>
    <edge id=":1362130349_3" function="internal">
        <lane id=":1362130349_3_0" index="0" allow="pedestrian bicycle" speed="5.56" length="6.30" width="2.00" shape="880.63,837.89 879.53,837.00 878.64,835.82 877.97,834.36 877.52,832.61"/>
    </edge>
    <edge id=":1362130349_4" function="internal">
        <lane id=":1362130349_4_0" index="0" allow="pedestrian bicycle" speed="2.89" length="2.92" width="2.00" shape="880.63,837.89 880.25,837.07 880.30,836.51 880.77,836.21 881.68,836.18"/>
    </edge>
    <edge id=":1362130349_5" function="internal">
        <lane id=":1362130349_5_0" index="0" allow="pedestrian bicycle" speed="5.56" length="4.61" width="2.00" shape="879.49,832.26 879.82,833.59 880.30,834.69 880.92,835.55 881.68,836.18"/>
    </edge>
    <edge id=":1362130349_6" function="internal">
        <lane id=":1362130349_6_0" index="0" allow="pedestrian bicycle" speed="5.56" length="7.11" width="2.00" shape="879.49,832.26 879.56,834.19 879.01,835.72 877.83,836.83 876.03,837.53"/>
    </edge>
    <edge id=":1362130349_7" function="internal">
        <lane id=":1362130349_7_0" index="0" allow="pedestrian bicycle" speed="2.56" length="2.00" width="2.00" shape="879.49,832.26 877.52,832.61"/>
    </edge>
    <edge id=":1362130349_8" function="internal">
        <lane id=":1362130349_8_0" index="0" allow="pedestrian bicycle" speed="2.56" length="2.00" width="2.00" shape="879.49,832.26 877.52,832.61"/>
    </edge>
    <edge id=":1362130349_9" function="internal">
        <lane id=":1362130349_9_0" index="0" allow="pedestrian bicycle" speed="2.89" length="2.92" width="2.00" shape="879.49,832.26 879.13,833.09 878.68,833.42 878.15,833.26 877.52,832.61"/>
    </edge>
    <edge id=":1362130349_10" function="internal">
        <lane id=":1362130349_10_0" index="0" allow="pedestrian bicycle" speed="5.56" length="4.61" width="2.00" shape="879.49,832.26 879.82,833.59 880.30,834.69 880.92,835.55 881.68,836.18"/>
    </edge>
    <edge id=":1362130349_11" function="internal">
        <lane id=":1362130349_11_0" index="0" allow="pedestrian bicycle" speed="5.56" length="7.11" width="2.00" shape="879.49,832.26 879.56,834.19 879.01,835.72 877.83,836.83 876.03,837.53"/>
    </edge>
    <edge id=":1362130349_12" function="internal">
        <lane id=":1362130349_12_0" index="0" allow="pedestrian bicycle" speed="2.56" length="2.00" width="2.00" shape="879.49,832.26 877.52,832.61"/>
    </edge>
    <edge id=":1362130349_13" function="internal">
        <lane id=":1362130349_13_0" index="0" allow="pedestrian bicycle" speed="2.56" length="2.00" width="2.00" shape="879.49,832.26 877.52,832.61"/>
    </edge>
    <edge id=":1362130349_14" function="internal">
        <lane id=":1362130349_14_0" index="0" allow="pedestrian bicycle" speed="2.89" length="2.92" width="2.00" shape="879.49,832.26 879.13,833.09 878.68,833.42 878.15,833.26 877.52,832.61"/>
    </edge>
    <edge id=":1362130349_15" function="internal">
        <lane id=":1362130349_15_0" index="0" allow="pedestrian bicycle" speed="5.56" length="4.61" width="2.00" shape="879.49,832.26 879.82,833.59 880.30,834.69 880.92,835.55 881.68,836.18"/>
    </edge>
    <edge id=":1362130349_16" function="internal">
        <lane id=":1362130349_16_0" index="0" allow="pedestrian bicycle" speed="5.56" length="7.11" width="2.00" shape="879.49,832.26 879.56,834.19 879.01,835.72 877.83,836.83 876.03,837.53"/>
    </edge>
    <edge id=":1362130349_17" function="internal">
        <lane id=":1362130349_17_0" index="0" allow="pedestrian bicycle" speed="2.56" length="2.00" width="2.00" shape="879.49,832.26 877.52,832.61"/>
    </edge>
    <edge id=":1362130349_18" function="internal">
        <lane id=":1362130349_18_0" index="0" allow="pedestrian bicycle" speed="2.56" length="2.00" width="2.00" shape="879.49,832.26 877.52,832.61"/>
    </edge>
    <edge id=":1362130349_19" function="internal">
        <lane id=":1362130349_19_0" index="0" allow="pedestrian bicycle" speed="2.89" length="2.92" width="2.00" shape="879.49,832.26 879.13,833.09 878.68,833.42 878.15,833.26 877.52,832.61"/>
    </edge>
    <edge id=":1362130349_20" function="internal">
        <lane id=":1362130349_20_0" index="0" allow="pedestrian bicycle" speed="4.50" length="4.01" width="2.00" shape="875.57,835.58 876.59,835.19 877.25,834.56 877.56,833.70 877.52,832.61"/>
    </edge>
    <edge id=":1362130349_21" function="internal">
        <lane id=":1362130349_21_0" index="0" allow="pedestrian bicycle" speed="4.50" length="4.01" width="2.00" shape="875.57,835.58 876.59,835.19 877.25,834.56 877.56,833.70 877.52,832.61"/>
    </edge>
    <edge id=":1362130349_22" function="internal">
        <lane id=":1362130349_22_0" index="0" allow="pedestrian bicycle" speed="4.50" length="4.01" width="2.00" shape="875.57,835.58 876.59,835.19 877.25,834.56 877.56,833.70 877.52,832.61"/>
    </edge>
    <edge id=":1362130349_23" function="internal">
        <lane id=":1362130349_23_0" index="0" allow="pedestrian bicycle" speed="5.56" length="6.41" width="2.00" shape="875.57,835.58 877.42,835.16 878.76,835.02 880.04,835.31 881.68,836.18"/>
    </edge>
    <edge id=":1362130349_24" function="internal">
        <lane id=":1362130349_24_0" index="0" allow="pedestrian bicycle" speed="2.89" length="2.92" width="2.00" shape="875.57,835.58 876.42,835.90 876.77,836.33 876.64,836.87 876.03,837.53"/>
    </edge>
    <edge id=":1362132000_0" function="internal">
        <lane id=":1362132000_0_0" index="0" allow="pedestrian delivery bicycle" speed="5.04" length="5.00" shape="1885.81,901.16 1884.46,901.41 1883.52,902.02 1882.97,903.02 1882.83,904.38"/>
    </edge>
    <edge id=":1362132000_1" function="internal">
        <lane id=":1362132000_1_0" index="0" disallow="tram rail_urban rail rail_electric rail_fast ship" speed="11.11" length="6.20" shape="1885.81,901.16 1879.62,901.40"/>
    </edge>
    <edge id=":1362132000_2" function="internal">
        <lane id=":1362132000_2_0" index="0" disallow="tram rail_urban rail rail_electric rail_fast ship" speed="11.11" length="6.20" shape="1879.37,895.00 1885.56,894.76"/>
        <lane id=":1362132000_2_1" index="1" disallow="tram rail_urban rail rail_electric rail_fast ship" speed="11.11" length="6.20" shape="1879.49,898.20 1885.69,897.96"/>
    </edge>
    <edge id=":1362132000_4" function="internal">
        <lane id=":1362132000_4_0" index="0" allow="pedestrian delivery bicycle" speed="6.08" length="7.76" shape="1879.49,898.20 1880.87,898.54 1881.88,899.69 1882.54,901.63 1882.83,904.38"/>
    </edge>
    <edge id=":1362132001_0" function="internal">
        <lane id=":1362132001_0_0" index="0" allow="pedestrian delivery bicycle" speed="5.04" length="5.01" shape="1870.46,904.87 1870.20,903.52 1869.57,902.57 1868.57,902.04 1867.21,901.92"/>
    </edge>
    <edge id=":1362132001_1" function="internal">
        <lane id=":1362132001_1_0" index="0" allow="pedestrian delivery bicycle" speed="6.07" length="7.78" shape="1870.46,904.87 1870.52,902.10 1871.02,900.10 1871.94,898.88 1873.30,898.44"/>
    </edge>
    <edge id=":1362132001_2" function="internal">
        <lane id=":1362132001_2_0" index="0" disallow="tram rail_urban rail rail_electric rail_fast ship" speed="11.11" length="6.22" shape="1873.42,901.63 1867.21,901.92"/>
    </edge>
    <edge id=":1362132001_3" function="internal">
        <lane id=":1362132001_3_0" index="0" disallow="tram rail_urban rail rail_electric rail_fast ship" speed="11.11" length="6.29" shape="1866.87,895.52 1873.18,895.24"/>
        <lane id=":1362132001_3_1" index="1" disallow="tram rail_urban rail rail_electric rail_fast ship" speed="11.11" length="6.29" shape="1867.04,898.72 1873.30,898.44"/>
    </edge>
    <edge id=":1362132004_0" function="internal">
        <lane id=":1362132004_0_0" index="0" allow="pedestrian delivery bicycle" speed="5.56" length="6.52" shape="1941.92,921.67 1940.69,922.04 1939.64,922.95 1938.77,924.42 1938.09,926.45"/>
    </edge>
    <edge id=":1362132004_1" function="internal">
        <lane id=":1362132004_1_0" index="0" allow="pedestrian delivery bicycle" speed="5.56" length="9.73" shape="1941.92,921.67 1932.21,922.31"/>
    </edge>
    <edge id=":1362132004_2" function="internal">
        <lane id=":1362132004_2_0" index="0" allow="pedestrian delivery bicycle" speed="3.65" length="4.67" shape="1941.92,921.67 1940.68,920.95 1940.22,920.18 1940.57,919.35 1941.72,918.48"/>
    </edge>
    <edge id=":1362132004_3" function="internal">
        <lane id=":1362132004_3_0" index="0" allow="pedestrian delivery bicycle" speed="5.56" length="9.73" shape="1932.00,919.11 1941.72,918.48"/>
    </edge>
    <edge id=":1362132004_4" function="internal">
        <lane id=":1362132004_4_0" index="0" allow="pedestrian delivery bicycle" speed="5.56" length="11.90" shape="1932.00,919.11 1935.42,919.37 1937.58,920.68 1938.47,923.04 1938.09,926.45"/>
    </edge>
    <edge id=":1362132004_5" function="internal">
        <lane id=":1362132004_5_0" index="0" allow="pedestrian delivery bicycle" speed="3.65" length="4.67" shape="1932.00,919.11 1933.25,919.83 1933.71,920.61 1933.36,921.43 1932.21,922.31"/>
    </edge>
    <edge id=":1362132004_6" function="internal">
        <lane id=":1362132004_6_0" index="0" allow="pedestrian delivery bicycle" speed="4.77" length="5.43" shape="1934.99,925.65 1935.16,924.10 1934.76,923.02 1933.77,922.42 1932.21,922.31"/>
    </edge>
    <edge id=":1362132004_7" function="internal">
        <lane id=":1362132004_7_0" index="0" allow="pedestrian delivery bicycle" speed="5.56" length="10.55" shape="1934.99,925.65 1936.07,922.64 1937.55,920.43 1939.43,919.05 1941.72,918.48"/>
    </edge>
    <edge id=":1362132004_8" function="internal">
        <lane id=":1362132004_8_0" index="0" allow="pedestrian delivery bicycle" speed="3.65" length="4.67" shape="1934.99,925.65 1936.07,924.69 1936.94,924.50 1937.62,925.09 1938.09,926.45"/>
    </edge>
    <edge id=":1362132005_0" function="internal">
        <lane id=":1362132005_0_0" index="0" allow="pedestrian delivery bicycle" speed="5.56" length="6.20" shape="1886.84,925.27 1880.66,925.68"/>
    </edge>
    <edge id=":1362132005_1" function="internal">
        <lane id=":1362132005_1_0" index="0" allow="pedestrian delivery bicycle" speed="3.65" length="4.67" shape="1886.84,925.27 1885.59,924.55 1885.14,923.78 1885.49,922.96 1886.63,922.08"/>
    </edge>
    <edge id=":1362132005_2" function="internal">
        <lane id=":1362132005_2_0" index="0" allow="pedestrian delivery bicycle" speed="5.01" length="5.03" shape="1883.38,919.14 1883.62,920.50 1884.25,921.45 1885.25,921.97 1886.63,922.08"/>
    </edge>
    <edge id=":1362132005_3" function="internal">
        <lane id=":1362132005_3_0" index="0" allow="pedestrian delivery bicycle" speed="5.56" length="7.76" shape="1883.38,919.14 1883.29,921.93 1882.81,923.95 1881.93,925.20 1880.66,925.68"/>
    </edge>
    <edge id=":1362132005_4" function="internal">
        <lane id=":1362132005_4_0" index="0" allow="pedestrian delivery bicycle" speed="5.56" length="6.20" shape="1880.45,922.49 1886.63,922.08"/>
    </edge>
    <edge id=":1362132005_5" function="internal">
        <lane id=":1362132005_5_0" index="0" allow="pedestrian delivery bicycle" speed="3.65" length="4.67" shape="1880.45,922.49 1881.70,923.21 1882.15,923.98 1881.80,924.80 1880.66,925.68"/>
    </edge>
    <edge id=":1362132009_0" function="internal">
        <lane id=":1362132009_0_0" index="0" allow="pedestrian delivery bicycle" speed="5.56" length="7.33" shape="1802.18,932.29 1800.89,929.76 1799.68,928.10 1798.54,927.33 1797.48,927.42"/>
    </edge>
    <edge id=":1362132009_1" function="internal">
        <lane id=":1362132009_1_0" index="0" allow="pedestrian delivery bicycle" speed="5.56" length="12.57" shape="1802.18,932.29 1801.15,928.75 1801.68,926.21 1803.77,924.67 1807.42,924.15"/>
    </edge>
    <edge id=":1362132009_2" function="internal">
        <lane id=":1362132009_2_0" index="0" allow="pedestrian delivery bicycle" speed="3.65" length="4.67" shape="1802.18,932.29 1802.42,930.87 1802.99,930.17 1803.88,930.21 1805.10,930.98"/>
    </edge>
    <edge id=":1362132009_3" function="internal">
        <lane id=":1362132009_3_0" index="0" allow="pedestrian delivery bicycle" speed="4.72" length="5.61" shape="1807.44,927.35 1805.81,927.58 1804.88,928.27 1804.64,929.40 1805.10,930.98"/>
    </edge>
    <edge id=":1362132009_4" function="internal">
        <lane id=":1362132009_4_0" index="0" allow="pedestrian delivery bicycle" speed="5.56" length="10.21" shape="1807.44,927.35 1804.40,927.04 1802.25,926.53 1800.20,926.44 1797.48,927.42"/>
    </edge>
    <edge id=":1362132009_5" function="internal">
        <lane id=":1362132009_5_0" index="0" allow="pedestrian delivery bicycle" speed="3.65" length="4.67" shape="1807.44,927.35 1806.24,926.55 1805.83,925.76 1806.23,924.95 1807.42,924.15"/>
    </edge>
    <edge id=":1362132009_6" function="internal">
        <lane id=":1362132009_6_0" index="0" allow="pedestrian delivery bicycle" speed="5.56" length="9.98" shape="1797.44,924.20 1807.42,924.15"/>
    </edge>
    <edge id=":1362132009_7" function="internal">
        <lane id=":1362132009_7_0" index="0" allow="pedestrian delivery bicycle" speed="5.56" length="10.81" shape="1797.44,924.20 1799.65,924.61 1801.66,925.88 1803.48,928.00 1805.10,930.98"/>
    </edge>
    <edge id=":1362132009_8" function="internal">
        <lane id=":1362132009_8_0" index="0" allow="pedestrian delivery bicycle" speed="3.90" length="4.71" shape="1797.44,924.20 1798.66,924.99 1799.08,925.79 1798.68,926.60 1797.48,927.42"/>
    </edge>
    <edge id=":1362132011_0" function="internal">
        <lane id=":1362132011_0_0" index="0" allow="pedestrian delivery bicycle" speed="5.32" length="4.99" shape="1825.39,929.30 1824.13,929.58 1823.18,930.21 1822.55,931.20 1822.24,932.54"/>
    </edge>
    <edge id=":1362132011_1" function="internal">
        <lane id=":1362132011_1_0" index="0" allow="pedestrian delivery bicycle" speed="5.56" length="9.02" shape="1825.39,929.30 1822.72,929.46 1820.89,929.44 1819.06,929.21 1816.44,928.73"/>
    </edge>
    <edge id=":1362132011_2" function="internal">
        <lane id=":1362132011_2_0" index="0" allow="pedestrian delivery bicycle" speed="3.65" length="4.67" shape="1825.39,929.30 1824.14,928.58 1823.69,927.81 1824.04,926.99 1825.18,926.11"/>
    </edge>
    <edge id=":1362132011_3" function="internal">
        <lane id=":1362132011_3_0" index="0" allow="pedestrian delivery bicycle" speed="5.56" length="8.21" shape="1817.03,925.58 1819.43,926.03 1821.08,926.23 1822.75,926.25 1825.18,926.11"/>
    </edge>
    <edge id=":1362132011_4" function="internal">
        <lane id=":1362132011_4_0" index="0" allow="pedestrian delivery bicycle" speed="5.56" length="9.73" shape="1817.03,925.58 1819.53,926.43 1821.23,927.87 1822.13,929.91 1822.24,932.54"/>
    </edge>
    <edge id=":1362132011_5" function="internal">
        <lane id=":1362132011_5_0" index="0" allow="pedestrian delivery bicycle" speed="3.65" length="4.67" shape="1817.03,925.58 1818.06,926.59 1818.31,927.46 1817.76,928.17 1816.44,928.73"/>
    </edge>
    <edge id=":1362132011_6" function="internal">
        <lane id=":1362132011_6_0" index="0" allow="pedestrian delivery bicycle" speed="5.15" length="4.89" shape="1819.06,932.23 1819.00,930.91 1818.55,929.88 1817.69,929.15 1816.44,928.73"/>
    </edge>
    <edge id=":1362132011_7" function="internal">
        <lane id=":1362132011_7_0" index="0" allow="pedestrian delivery bicycle" speed="5.56" length="9.56" shape="1819.06,932.23 1819.65,929.69 1820.87,927.82 1822.71,926.63 1825.18,926.11"/>
    </edge>
    <edge id=":1362132011_8" function="internal">
        <lane id=":1362132011_8_0" index="0" allow="pedestrian delivery bicycle" speed="3.65" length="4.67" shape="1819.06,932.23 1819.97,931.11 1820.80,930.79 1821.56,931.27 1822.24,932.54"/>
    </edge>
    <edge id=":1362132013_0" function="internal">
        <lane id=":1362132013_0_0" index="0" allow="pedestrian delivery bicycle" speed="5.56" length="9.38" shape="1935.65,936.02 1933.66,945.18"/>
    </edge>
    <edge id=":1362132013_1" function="internal">
        <lane id=":1362132013_1_0" index="0" allow="pedestrian delivery bicycle" speed="5.56" length="10.32" shape="1935.65,936.02 1934.68,938.15 1933.02,939.74 1930.67,940.80 1927.61,941.31"/>
    </edge>
    <edge id=":1362132013_2" function="internal">
        <lane id=":1362132013_2_0" index="0" allow="pedestrian delivery bicycle" speed="3.65" length="4.67" shape="1935.65,936.02 1934.57,936.98 1933.70,937.17 1933.02,936.59 1932.55,935.23"/>
    </edge>
    <edge id=":1362132013_3" function="internal">
        <lane id=":1362132013_3_0" index="0" allow="pedestrian delivery bicycle" speed="5.56" length="6.31" shape="1927.38,938.12 1929.40,937.82 1930.93,937.23 1931.98,936.37 1932.55,935.23"/>
    </edge>
    <edge id=":1362132013_4" function="internal">
        <lane id=":1362132013_4_0" index="0" allow="pedestrian delivery bicycle" speed="5.56" length="11.57" shape="1927.38,938.12 1930.68,938.35 1932.82,939.61 1933.81,941.88 1933.66,945.18"/>
    </edge>
    <edge id=":1362132013_5" function="internal">
        <lane id=":1362132013_5_0" index="0" allow="pedestrian delivery bicycle" speed="3.65" length="4.67" shape="1927.38,938.12 1928.64,938.83 1929.09,939.60 1928.75,940.43 1927.61,941.31"/>
    </edge>
    <edge id=":1362132013_6" function="internal">
        <lane id=":1362132013_6_0" index="0" allow="pedestrian delivery bicycle" speed="4.81" length="5.35" shape="1930.51,944.58 1930.59,943.05 1930.13,942.00 1929.14,941.42 1927.61,941.31"/>
    </edge>
    <edge id=":1362132013_7" function="internal">
        <lane id=":1362132013_7_0" index="0" allow="pedestrian delivery bicycle" speed="5.56" length="9.57" shape="1930.51,944.58 1932.55,935.23"/>