<?xml version="1.0" encoding="UTF-8"?>

<!-- generated on 2023-10-16 20:54:24.165031 by osmWebWizard.py v1_18_0+0000-03ecfdea036
<configuration>
    <net-file value="C:\Users\Shima\Sumo\2023-10-16-20-54-14\osm.net.xml.gz"/>
    <output-trip-file value="C:\Users\Shima\Sumo\2023-10-16-20-54-14\osm.passenger.trips.xml"/>
    <route-file value="C:\Users\Shima\Sumo\2023-10-16-20-54-14\osm.passenger.rou.xml"/>
    <prefix value="veh"/>
    <trip-attributes value="departLane=&quot;best&quot;"/>
    <fringe-start-attributes value="departSpeed=&quot;max&quot;"/>
    <vehicle-class value="passenger"/>
    <lanes value="True"/>
    <fringe-factor value="15"/>
    <allow-fringe.min-length value="1000.0"/>
    <via-edge-types value="highway.motorway,highway.motorway_link,highway.trunk_link,highway.primary_link,highway.secondary_link,highway.tertiary_link"/>
    <min-distance value="300.0"/>
    <min-distance.fringe value="10.0"/>
    <remove-loops value="True"/>
    <validate value="True"/>
    <insertion-density value="18.0"/>
</configuration>
-->

<!-- generated on 2023-10-16 20:54:23 by Eclipse SUMO duarouter Version 1.18.0
<configuration xmlns:xsi="http://www.w3.org/2001/XMLSchema-instance" xsi:noNamespaceSchemaLocation="http://sumo.dlr.de/xsd/duarouterConfiguration.xsd">

    <input>
        <net-file value="C:\Users\Shima\Sumo\2023-10-16-20-54-14\osm.net.xml.gz"/>
        <route-files value="C:\Users\Shima\Sumo\2023-10-16-20-54-14\osm.passenger.trips.xml"/>
    </input>

    <output>
        <output-file value="C:\Users\Shima\Sumo\2023-10-16-20-54-14\osm.passenger.trips.xml.tmp"/>
        <alternatives-output value="NUL"/>
        <write-trips value="true"/>
    </output>

    <processing>
        <remove-loops value="true"/>
    </processing>

    <time>
        <begin value="0.0"/>
        <end value="3600.0"/>
    </time>

    <report>
        <no-warnings value="true"/>
        <ignore-errors value="true"/>
        <no-step-log value="true"/>
    </report>

</configuration>
-->

<routes xmlns:xsi="http://www.w3.org/2001/XMLSchema-instance" xsi:noNamespaceSchemaLocation="http://sumo.dlr.de/xsd/routes_file.xsd">
    <vType id="veh_passenger" vClass="passenger"/>
    <trip id="veh0" type="veh_passenger" depart="0.00" departLane="best" from="26346159#3" to="157801818#7"/>
    <trip id="veh1" type="veh_passenger" depart="3.37" departLane="best" departSpeed="max" from="-27151331#3" to="-35347852#0"/>
    <trip id="veh2" type="veh_passenger" depart="6.74" departLane="best" departSpeed="max" from="33654407#0" to="290560886#4"/>
    <trip id="veh3" type="veh_passenger" depart="10.11" departLane="best" from="56699063#1" to="-26227545"/>
    <trip id="veh4" type="veh_passenger" depart="13.48" departLane="best" departSpeed="max" from="-56675982" to="-157801824#0"/>
    <trip id="veh5" type="veh_passenger" depart="16.85" departLane="best" from="-264025566#1" to="26237553#1"/>
    <trip id="veh6" type="veh_passenger" depart="20.22" departLane="best" from="157801824#1" to="290560886#3"/>
    <trip id="veh7" type="veh_passenger" depart="23.60" departLane="best" from="27120709#1" to="26320726#1"/>
    <trip id="veh8" type="veh_passenger" depart="26.97" departLane="best" from="48757108#5" to="290560886#4"/>
    <trip id="veh9" type="veh_passenger" depart="30.34" departLane="best" departSpeed="max" from="-313005021#2" to="-272634149"/>
    <trip id="veh10" type="veh_passenger" depart="33.71" departLane="best" from="26237441#2" to="26237527#1"/>
    <trip id="veh11" type="veh_passenger" depart="37.08" departLane="best" from="56699019#0" to="-27120709#1"/>
    <trip id="veh12" type="veh_passenger" depart="40.45" departLane="best" departSpeed="max" from="157801824#0" to="859881541#0"/>
    <trip id="veh13" type="veh_passenger" depart="43.82" departLane="best" departSpeed="max" from="-445026050#2" to="26320726#2"/>
    <trip id="veh14" type="veh_passenger" depart="47.19" departLane="best" from="56698991#0" to="27121047#6"/>
    <trip id="veh15" type="veh_passenger" depart="50.56" departLane="best" from="56699036#0" to="26346143#1"/>
    <trip id="veh16" type="veh_passenger" depart="53.93" departLane="best" departSpeed="max" from="289103447#0" to="-157801839"/>
    <trip id="veh17" type="veh_passenger" depart="57.30" departLane="best" departSpeed="max" from="-264025566#2" to="56699014#0"/>
    <trip id="veh18" type="veh_passenger" depart="60.67" departLane="best" departSpeed="max" from="-160120489#1" to="-35351661#1"/>
    <trip id="veh19" type="veh_passenger" depart="64.04" departLane="best" departSpeed="max" from="-26237518#1" to="-56676412"/>
    <trip id="veh20" type="veh_passenger" depart="67.42" departLane="best" from="-26346143#0" to="1030469072#1"/>
    <trip id="veh21" type="veh_passenger" depart="70.79" departLane="best" from="-35352054" to="-33654407#0"/>
    <trip id="veh22" type="veh_passenger" depart="74.16" departLane="best" departSpeed="max" from="-27151331#3" to="807291180"/>
    <trip id="veh23" type="veh_passenger" depart="77.53" departLane="best" from="27120688#3" to="-27121047#4"/>
    <trip id="veh24" type="veh_passenger" depart="80.90" departLane="best" departSpeed="max" from="-26237662" to="35349542"/>
    <trip id="veh25" type="veh_passenger" depart="84.27" departLane="best" departSpeed="max" from="-26237662" to="-157801814#4"/>
    <trip id="veh26" type="veh_passenger" depart="87.64" departLane="best" from="948518632#4" to="27151331#3"/>
    <trip id="veh27" type="veh_passenger" depart="91.01" departLane="best" departSpeed="max" from="157801839" to="290560886#4"/>
    <trip id="veh28" type="veh_passenger" depart="94.38" departLane="best" from="-56699014#5" to="48757108#1"/>
    <trip id="veh29" type="veh_passenger" depart="97.75" departLane="best" departSpeed="max" from="-264025566#2" to="-157801824#0"/>
    <trip id="veh30" type="veh_passenger" depart="101.12" departLane="best" departSpeed="max" from="-290560886#4" to="-48757108#1"/>
    <trip id="veh31" type="veh_passenger" depart="104.49" departLane="best" from="-26346159#1" to="-856561977#0"/>
    <trip id="veh32" type="veh_passenger" depart="107.86" departLane="best" from="56699087#1" to="856561982"/>
    <trip id="veh33" type="veh_passenger" depart="111.24" departLane="best" from="-27121047#4" to="-157801827#1"/>
    <trip id="veh34" type="veh_passenger" depart="114.61" departLane="best" from="787217956#3" to="231406564#1"/>
    <trip id="veh35" type="veh_passenger" depart="117.98" departLane="best" from="-27151331#1" to="-48756665"/>
    <trip id="veh36" type="veh_passenger" depart="121.35" departLane="best" departSpeed="max" from="157801839" to="-48756666"/>
    <trip id="veh37" type="veh_passenger" depart="124.72" departLane="best" from="231406564#0" to="56699106#2"/>
    <trip id="veh38" type="veh_passenger" depart="128.09" departLane="best" departSpeed="max" from="-445026050#2" to="-35346163"/>
    <trip id="veh39" type="veh_passenger" depart="131.46" departLane="best" from="26236174#1" to="-157801839"/>
    <trip id="veh40" type="veh_passenger" depart="134.83" departLane="best" departSpeed="max" from="-26237518#1" to="27121118#4"/>
    <trip id="veh41" type="veh_passenger" depart="138.20" departLane="best" departSpeed="max" from="48756666" to="160120462#1"/>
    <trip id="veh42" type="veh_passenger" depart="141.57" departLane="best" departSpeed="max" from="-160120462#1" to="-157801815#2"/>
    <trip id="veh43" type="veh_passenger" depart="144.94" departLane="best" from="-96315599" to="26237657#2"/>
    <trip id="veh44" type="veh_passenger" depart="148.31" departLane="best" departSpeed="max" from="948518632#0" to="56699106#0"/>
    <trip id="veh45" type="veh_passenger" depart="151.68" departLane="best" from="-157801814#2" to="-33654407#3"/>
    <trip id="veh46" type="veh_passenger" depart="155.06" departLane="best" departSpeed="max" from="272634149" to="26237662"/>
    <trip id="veh47" type="veh_passenger" depart="158.43" departLane="best" departSpeed="max" from="-26237518#1" to="160120463#1"/>
    <trip id="veh48" type="veh_passenger" depart="161.80" departLane="best" from="-856561982" to="858716448#1"/>
    <trip id="veh49" type="veh_passenger" depart="165.17" departLane="best" from="1029909703#1" to="-289103447#0"/>
    <trip id="veh50" type="veh_passenger" depart="168.54" departLane="best" from="787217954" to="56699106#2"/>
    <trip id="veh51" type="veh_passenger" depart="171.91" departLane="best" from="289103447#1" to="27151331#3"/>
    <trip id="veh52" type="veh_passenger" depart="175.28" departLane="best" from="26237441#5" to="-272634149"/>
    <trip id="veh53" type="veh_passenger" depart="178.65" departLane="best" from="48756409#0" to="26237662"/>
    <trip id="veh54" type="veh_passenger" depart="182.02" departLane="best" departSpeed="max" from="48756665" to="26237662"/>
    <trip id="veh55" type="veh_passenger" depart="185.39" departLane="best" from="33654407#1" to="858716453#0"/>
    <trip id="veh56" type="veh_passenger" depart="188.76" departLane="best" from="-157801818#1" to="787217956#2"/>
    <trip id="veh57" type="veh_passenger" depart="192.13" departLane="best" departSpeed="max" from="-290560886#4" to="-157802100#0"/>
    <trip id="veh58" type="veh_passenger" depart="195.50" departLane="best" from="56699087#1" to="856561982"/>
    <trip id="veh59" type="veh_passenger" depart="198.88" departLane="best" departSpeed="max" from="-160120489#1" to="26237527#2"/>
    <trip id="veh60" type="veh_passenger" depart="202.25" departLane="best" from="-160120471#1" to="445026050#1"/>
    <trip id="veh61" type="veh_passenger" depart="205.62" departLane="best" from="48756412#1" to="-264025566#1"/>
    <trip id="veh62" type="veh_passenger" depart="208.99" departLane="best" from="-859881541#1" to="26320726#2"/>
    <trip id="veh63" type="veh_passenger" depart="212.36" departLane="best" from="-27151331#1" to="56699106#2"/>
    <trip id="veh64" type="veh_passenger" depart="215.73" departLane="best" departSpeed="max" from="-56675982" to="-33654407#0"/>
    <trip id="veh65" type="veh_passenger" depart="219.10" departLane="best" departSpeed="max" from="157801824#0" to="35349737"/>
    <trip id="veh66" type="veh_passenger" depart="222.47" departLane="best" from="-26346118#4" to="-856561977#0"/>
    <trip id="veh67" type="veh_passenger" depart="225.84" departLane="best" from="948518632#6" to="28409557"/>
    <trip id="veh68" type="veh_passenger" depart="229.21" departLane="best" from="56699014#6" to="26237631"/>
    <trip id="veh69" type="veh_passenger" depart="232.58" departLane="best" departSpeed="max" from="-26237527#2" to="-35347852#1"/>
    <trip id="veh70" type="veh_passenger" depart="235.95" departLane="best" departSpeed="max" from="-264025566#2" to="35346259"/>
    <trip id="veh71" type="veh_passenger" depart="239.32" departLane="best" from="-160120471#3" to="27142639#1"/>
    <trip id="veh72" type="veh_passenger" depart="242.70" departLane="best" departSpeed="max" from="-264025566#2" to="56699106#2"/>
    <trip id="veh73" type="veh_passenger" depart="246.07" departLane="best" from="-56699034#1" to="-231406564#0"/>
    <trip id="veh74" type="veh_passenger" depart="249.44" departLane="best" from="-26346182#2" to="27120688#4"/>
    <trip id="veh75" type="veh_passenger" depart="252.81" departLane="best" from="856562001#0" to="-26346118#8"/>
    <trip id="veh76" type="veh_passenger" depart="256.18" departLane="best" from="-859881541#0" to="48757109"/>
    <trip id="veh77" type="veh_passenger" depart="259.55" departLane="best" from="48757109" to="-289103447#0"/>
    <trip id="veh78" type="veh_passenger" depart="262.92" departLane="best" from="26237455#0" to="160120462#1"/>
    <trip id="veh79" type="veh_passenger" depart="266.29" departLane="best" departSpeed="max" from="-56675982" to="26237441#6"/>
    <trip id="veh80" type="veh_passenger" depart="269.66" departLane="best" departSpeed="max" from="33654407#0" to="290560886#3"/>
    <trip id="veh81" type="veh_passenger" depart="273.03" departLane="best" departSpeed="max" from="948518632#0" to="-26237593#0"/>
    <trip id="veh82" type="veh_passenger" depart="276.40" departLane="best" from="48756662#0" to="-948518632#3"/>
    <trip id="veh83" type="veh_passenger" depart="279.77" departLane="best" from="56699036#0" to="-48756665"/>
    <trip id="veh84" type="veh_passenger" depart="283.14" departLane="best" departSpeed="max" from="-26320726#2" to="160120489#1"/>
    <trip id="veh85" type="veh_passenger" depart="286.51" departLane="best" departSpeed="max" from="-56675982" to="-56676412"/>
    <trip id="veh86" type="veh_passenger" depart="289.89" departLane="best" departSpeed="max" from="-27121047#6" to="-787217955#0"/>
    <trip id="veh87" type="veh_passenger" depart="293.26" departLane="best" from="-56699034#1" to="56699106#0"/>
    <trip id="veh88" type="veh_passenger" depart="296.63" departLane="best" from="965864062#1" to="56699034#1"/>
    <trip id="veh89" type="veh_passenger" depart="300.00" departLane="best" departSpeed="max" from="948518632#0" to="787217956#1"/>
    <trip id="veh90" type="veh_passenger" depart="303.37" departLane="best" from="56699104#1" to="-272634149"/>
    <trip id="veh91" type="veh_passenger" depart="306.74" departLane="best" departSpeed="max" from="-965864062#2" to="-33654407#0"/>
    <trip id="veh92" type="veh_passenger" depart="310.11" departLane="best" departSpeed="max" from="-445026050#2" to="-965864062#1"/>
    <trip id="veh93" type="veh_passenger" depart="313.48" departLane="best" from="-27151331#1" to="-48757108#5"/>
    <trip id="veh94" type="veh_passenger" depart="316.85" departLane="best" from="-856561983#1" to="160120462#1"/>
    <trip id="veh95" type="veh_passenger" depart="320.22" departLane="best" from="859881541#0" to="965864062#2"/>
    <trip id="veh96" type="veh_passenger" depart="323.59" departLane="best" departSpeed="max" from="157801839" to="33424271#5"/>
    <trip id="veh97" type="veh_passenger" depart="326.96" departLane="best" departSpeed="max" from="-26237631" to="-56699014#4"/>
    <trip id="veh98" type="veh_passenger" depart="330.33" departLane="best" departSpeed="max" from="948518632#0" to="26346159#2"/>
    <trip id="veh99" type="veh_passenger" depart="333.71" departLane="best" departSpeed="max" from="157801824#0" to="445026050#1"/>
    <trip id="veh100" type="veh_passenger" depart="337.08" departLane="best" departSpeed="max" from="-26237631" to="-858716453#0"/>
    <trip id="veh101" type="veh_passenger" depart="340.45" departLane="best" departSpeed="max" from="-160120489#1" to="-289103447#0"/>
    <trip id="veh102" type="veh_passenger" depart="343.82" departLane="best" departSpeed="max" from="26227545" to="290560886#4"/>
    <trip id="veh103" type="veh_passenger" depart="347.19" departLane="best" from="-27120688#3" to="26346143#1"/>
    <trip id="veh104" type="veh_passenger" depart="350.56" departLane="best" departSpeed="max" from="26227545" to="27121047#6"/>
    <trip id="veh105" type="veh_passenger" depart="353.93" departLane="best" departSpeed="max" from="-56675982" to="26346182#3"/>
    <trip id="veh106" type="veh_passenger" depart="357.30" departLane="best" from="157801815#2" to="807291180"/>
    <trip id="veh107" type="veh_passenger" depart="360.67" departLane="best" from="-26346118#8" to="313005021#2"/>
    <trip id="veh108" type="veh_passenger" depart="364.04" departLane="best" from="-27120709#3" to="-157801827#1"/>
    <trip id="veh109" type="veh_passenger" depart="367.41" departLane="best" departSpeed="max" from="272634149" to="-56699014#6"/>
    <trip id="veh110" type="veh_passenger" depart="370.78" departLane="best" departSpeed="max" from="-290560886#4" to="445026050#1"/>
    <trip id="veh111" type="veh_passenger" depart="374.15" departLane="best" departSpeed="max" from="-160120489#1" to="-231406564#1"/>
    <trip id="veh112" type="veh_passenger" depart="377.53" departLane="best" from="965864062#0" to="965864062#2"/>
    <trip id="veh113" type="veh_passenger" depart="380.90" departLane="best" departSpeed="max" from="-160120489#1" to="-33654407#0"/>
    <trip id="veh114" type="veh_passenger" depart="384.27" departLane="best" from="-27151331#1" to="787217957#2"/>
    <trip id="veh115" type="veh_passenger" depart="387.64" departLane="best" from="56699099#2" to="56699106#2"/>
    <trip id="veh116" type="veh_passenger" depart="391.01" departLane="best" from="-35352054" to="-272634149"/>
    <trip id="veh117" type="veh_passenger" depart="394.38" departLane="best" from="-56699014#0" to="313005021#2"/>
    <trip id="veh118" type="veh_passenger" depart="397.75" departLane="best" from="-27121047#3" to="-157801810#2"/>
    <trip id="veh119" type="veh_passenger" depart="401.12" departLane="best" departSpeed="max" from="56676412" to="56699014#5"/>
    <trip id="veh120" type="veh_passenger" depart="404.49" departLane="best" from="27142639#1" to="-829319582#0"/>
    <trip id="veh121" type="veh_passenger" depart="407.86" departLane="best" departSpeed="max" from="-26237553#1" to="-26346118#9"/>
    <trip id="veh122" type="veh_passenger" depart="411.23" departLane="best" departSpeed="max" from="-26237518#1" to="26320726#2"/>
    <trip id="veh123" type="veh_passenger" depart="414.60" departLane="best" departSpeed="max" from="-27151331#3" to="27120709#3"/>
    <trip id="veh124" type="veh_passenger" depart="417.97" departLane="best" from="-290560886#1" to="-33654407#0"/>
    <trip id="veh125" type="veh_passenger" depart="421.35" departLane="best" from="26346125#1" to="-48756666"/>
    <trip id="veh126" type="veh_passenger" depart="424.72" departLane="best" departSpeed="max" from="-965864062#2" to="56699106#2"/>
    <trip id="veh127" type="veh_passenger" depart="428.09" departLane="best" from="56699019#0" to="-26237441#4"/>
    <trip id="veh128" type="veh_passenger" depart="431.46" departLane="best" departSpeed="max" from="-56675982" to="-56676412"/>
    <trip id="veh129" type="veh_passenger" depart="434.83" departLane="best" from="858716456#1" to="48756409#0"/>
    <trip id="veh130" type="veh_passenger" depart="438.20" departLane="best" from="-26346143#1" to="-48756666"/>
    <trip id="veh131" type="veh_passenger" depart="441.57" departLane="best" from="33654407#3" to="26320726#2"/>
    <trip id="veh132" type="veh_passenger" depart="444.94" departLane="best" from="-56699014#0" to="157801814#1"/>
    <trip id="veh133" type="veh_passenger" depart="448.31" departLane="best" departSpeed="max" from="-160120489#1" to="56699106#2"/>
    <trip id="veh134" type="veh_passenger" depart="451.68" departLane="best" from="-56699014#1" to="26346182#3"/>
    <trip id="veh135" type="veh_passenger" depart="455.05" departLane="best" departSpeed="max" from="-26237631" to="-264025561#1"/>
    <trip id="veh136" type="veh_passenger" depart="458.42" departLane="best" departSpeed="max" from="-290560886#4" to="56699106#2"/>
    <trip id="veh137" type="veh_passenger" depart="461.79" departLane="best" departSpeed="max" from="48756666" to="56699106#0"/>
    <trip id="veh138" type="veh_passenger" depart="465.17" departLane="best" from="787217952#0" to="-33654407#0"/>
    <trip id="veh139" type="veh_passenger" depart="468.54" departLane="best" departSpeed="max" from="-27121047#6" to="26346098#1"/>
    <trip id="veh140" type="veh_passenger" depart="471.91" departLane="best" departSpeed="max" from="48756665" to="56699106#2"/>
    <trip id="veh141" type="veh_passenger" depart="475.28" departLane="best" from="48757108#2" to="27121047#6"/>
    <trip id="veh142" type="veh_passenger" depart="478.65" departLane="best" departSpeed="max" from="-26237631" to="787217956#2"/>
    <trip id="veh143" type="veh_passenger" depart="482.02" departLane="best" departSpeed="max" from="56676412" to="56699106#2"/>
    <trip id="veh144" type="veh_passenger" depart="485.39" departLane="best" from="-157801818#7" to="35352311"/>
    <trip id="veh145" type="veh_passenger" depart="488.76" departLane="best" departSpeed="max" from="-290560886#4" to="787217956#3"/>
    <trip id="veh146" type="veh_passenger" depart="492.13" departLane="best" from="48757108#3" to="56699106#1"/>
    <trip id="veh147" type="veh_passenger" depart="495.50" departLane="best" departSpeed="max" from="56676412" to="-48756666"/>
    <trip id="veh148" type="veh_passenger" depart="498.87" departLane="best" departSpeed="max" from="48756666" to="-26346098#3"/>
    <trip id="veh149" type="veh_passenger" depart="502.24" departLane="best" departSpeed="max" from="-264025566#2" to="56699014#4"/>
    <trip id="veh150" type="veh_passenger" depart="505.61" departLane="best" from="858716449#1" to="-787217955#0"/>
    <trip id="veh151" type="veh_passenger" depart="508.99" departLane="best" from="-157801818#4" to="290560886#0"/>
    <trip id="veh152" type="veh_passenger" depart="512.36" departLane="best" departSpeed="max" from="-290560886#4" to="56699106#1"/>
    <trip id="veh153" type="veh_passenger" depart="515.73" departLane="best" departSpeed="max" from="948518632#0" to="-56676412"/>
    <trip id="veh154" type="veh_passenger" depart="519.10" departLane="best" departSpeed="max" from="948518632#0" to="26237662"/>
    <trip id="veh155" type="veh_passenger" depart="522.47" departLane="best" from="-858716448#2" to="26346118#9"/>
    <trip id="veh156" type="veh_passenger" depart="525.84" departLane="best" departSpeed="max" from="948518632#0" to="-289103447#0"/>
    <trip id="veh157" type="veh_passenger" depart="529.21" departLane="best" departSpeed="max" from="948518632#0" to="-48756666"/>
    <trip id="veh158" type="veh_passenger" depart="532.58" departLane="best" departSpeed="max" from="-26237518#1" to="160120463#0"/>
    <trip id="veh159" type="veh_passenger" depart="535.95" departLane="best" departSpeed="max" from="33654407#0" to="-856561981"/>
    <trip id="veh160" type="veh_passenger" depart="539.32" departLane="best" from="26237441#2" to="26237553#1"/>
    <trip id="veh161" type="veh_passenger" depart="542.69" departLane="best" departSpeed="max" from="-445026050#2" to="26346143#1"/>
    <trip id="veh162" type="veh_passenger" depart="546.06" departLane="best" from="-157801808" to="787217955#1"/>
    <trip id="veh163" type="veh_passenger" depart="549.43" departLane="best" departSpeed="max" from="157801824#0" to="-33654407#1"/>
    <trip id="veh164" type="veh_passenger" depart="552.81" departLane="best" from="27142727#0" to="-859881538#3"/>
    <trip id="veh165" type="veh_passenger" depart="556.18" departLane="best" departSpeed="max" from="-290560886#4" to="56699076#1"/>
    <trip id="veh166" type="veh_passenger" depart="559.55" departLane="best" from="-290560886#2" to="56699014#6"/>
    <trip id="veh167" type="veh_passenger" depart="562.92" departLane="best" departSpeed="max" from="-290560886#4" to="157802105"/>
    <trip id="veh168" type="veh_passenger" depart="566.29" departLane="best" from="48756662#0" to="-56699014#3"/>
    <trip id="veh169" type="veh_passenger" depart="569.66" departLane="best" departSpeed="max" from="-26237527#2" to="160120462#1"/>
    <trip id="veh170" type="veh_passenger" depart="573.03" departLane="best" from="858716448#2" to="290560886#4"/>
    <trip id="veh171" type="veh_passenger" depart="576.40" departLane="best" from="472736051#1" to="27121047#6"/>
    <trip id="veh172" type="veh_passenger" depart="579.77" departLane="best" from="-290560886#1" to="26320726#2"/>
    <trip id="veh173" type="veh_passenger" depart="583.14" departLane="best" from="33654407#1" to="-56676412"/>
    <trip id="veh174" type="veh_passenger" depart="586.51" departLane="best" from="-56699014#1" to="26346159#2"/>
    <trip id="veh175" type="veh_passenger" depart="589.88" departLane="best" from="-27121047#4" to="-26237441#4"/>
    <trip id="veh176" type="veh_passenger" depart="593.25" departLane="best" from="-56699034#1" to="-33654407#0"/>
    <trip id="veh177" type="veh_passenger" depart="596.63" departLane="best" from="-859881541#0" to="56699106#2"/>
    <trip id="veh178" type="veh_passenger" depart="600.00" departLane="best" departSpeed="max" from="48756666" to="-272634149"/>
    <trip id="veh179" type="veh_passenger" depart="603.37" departLane="best" departSpeed="max" from="-160120489#1" to="26237631"/>
    <trip id="veh180" type="veh_passenger" depart="606.74" departLane="best" from="26346125#0" to="859881541#0"/>
    <trip id="veh181" type="veh_passenger" depart="610.11" departLane="best" departSpeed="max" from="56676412" to="445026050#1"/>
    <trip id="veh182" type="veh_passenger" depart="613.48" departLane="best" departSpeed="max" from="272634149" to="-35347852#1"/>
    <trip id="veh183" type="veh_passenger" depart="616.85" departLane="best" from="-26346118#2" to="-157801818#7"/>
    <trip id="veh184" type="veh_passenger" depart="620.22" departLane="best" departSpeed="max" from="-27121047#6" to="26237518#1"/>
    <trip id="veh185" type="veh_passenger" depart="623.59" departLane="best" from="56699024#0" to="-231406564#1"/>
    <trip id="veh186" type="veh_passenger" depart="626.96" departLane="best" departSpeed="max" from="-56675982" to="27121118#8"/>
    <trip id="veh187" type="veh_passenger" depart="630.33" departLane="best" from="26346098#2" to="290560886#4"/>
    <trip id="veh188" type="veh_passenger" depart="633.70" departLane="best" departSpeed="max" from="-965864062#2" to="-48756665"/>
    <trip id="veh189" type="veh_passenger" depart="637.07" departLane="best" from="-27121047#5" to="-157801810#1"/>
    <trip id="veh190" type="veh_passenger" depart="640.45" departLane="best" from="-35349737" to="48756409#0"/>
    <trip id="veh191" type="veh_passenger" depart="643.82" departLane="best" departSpeed="max" from="-26237518#1" to="160120462#1"/>
    <trip id="veh192" type="veh_passenger" depart="647.19" departLane="best" from="-26320726#0" to="858716449#1"/>
    <trip id="veh193" type="veh_passenger" depart="650.56" departLane="best" from="-157801814#2" to="-157801839"/>
    <trip id="veh194" type="veh_passenger" depart="653.93" departLane="best" departSpeed="max" from="-27121047#6" to="56699076#1"/>
    <trip id="veh195" type="veh_passenger" depart="657.30" departLane="best" from="-856561983#1" to="56698963#0"/>
    <trip id="veh196" type="veh_passenger" depart="660.67" departLane="best" from="27151331#2" to="965864062#2"/>
    <trip id="veh197" type="veh_passenger" depart="664.04" departLane="best" departSpeed="max" from="26227545" to="787217956#1"/>
    <trip id="veh198" type="veh_passenger" depart="667.41" departLane="best" from="56699107#0" to="27121047#6"/>
    <trip id="veh199" type="veh_passenger" depart="670.78" departLane="best" from="-290560886#2" to="26237553#1"/>
    <trip id="veh200" type="veh_passenger" depart="674.15" departLane="best" from="56698991#0" to="26320726#2"/>
    <trip id="veh202" type="veh_passenger" depart="680.89" departLane="best" from="-859881541#0" to="-48756666"/>
    <trip id="veh203" type="veh_passenger" depart="684.27" departLane="best" departSpeed="max" from="-27121047#6" to="27151331#3"/>
    <trip id="veh204" type="veh_passenger" depart="687.64" departLane="best" from="48756409#0" to="26237631"/>
    <trip id="veh205" type="veh_passenger" depart="691.01" departLane="best" from="26346118#3" to="-56676412"/>
    <trip id="veh206" type="veh_passenger" depart="694.38" departLane="best" departSpeed="max" from="-160120489#1" to="-56676412"/>
    <trip id="veh207" type="veh_passenger" depart="697.75" departLane="best" departSpeed="max" from="-27151331#3" to="-858716448#1"/>
    <trip id="veh208" type="veh_passenger" depart="701.12" departLane="best" departSpeed="max" from="157801824#0" to="27121047#5"/>
    <trip id="veh209" type="veh_passenger" depart="704.49" departLane="best" departSpeed="max" from="-264025566#2" to="290560886#4"/>
    <trip id="veh210" type="veh_passenger" depart="707.86" departLane="best" departSpeed="max" from="289103447#0" to="-160120463#1"/>
    <trip id="veh211" type="veh_passenger" depart="711.23" departLane="best" from="-48757108#3" to="26237662"/>
    <trip id="veh212" type="veh_passenger" depart="714.60" departLane="best" departSpeed="max" from="-56675982" to="-33654407#0"/>
    <trip id="veh213" type="veh_passenger" depart="717.97" departLane="best" departSpeed="max" from="-56675982" to="56699106#2"/>
    <trip id="veh214" type="veh_passenger" depart="721.34" departLane="best" from="231406564#0" to="290560886#4"/>
    <trip id="veh215" type="veh_passenger" depart="724.71" departLane="best" from="56699033#0" to="787217953#0"/>
    <trip id="veh216" type="veh_passenger" depart="728.09" departLane="best" departSpeed="max" from="-445026050#2" to="-157801810#1"/>
    <trip id="veh217" type="veh_passenger" depart="731.46" departLane="best" departSpeed="max" from="-56675982" to="445026050#1"/>
    <trip id="veh218" type="veh_passenger" depart="734.83" departLane="best" departSpeed="max" from="157801824#0" to="27120688#4"/>
    <trip id="veh219" type="veh_passenger" depart="738.20" departLane="best" departSpeed="max" from="-264025566#2" to="-35346163"/>
    <trip id="veh220" type="veh_passenger" depart="741.57" departLane="best" from="-56699014#5" to="-157801824#0"/>
    <trip id="veh221" type="veh_passenger" depart="744.94" departLane="best" departSpeed="max" from="-313005021#2" to="290560886#4"/>
    <trip id="veh222" type="veh_passenger" depart="748.31" departLane="best" from="-48756664" to="-272634149"/>
    <trip id="veh223" type="veh_passenger" depart="751.68" departLane="best" from="859881538#2" to="-264025561#1"/>
    <trip id="veh224" type="veh_passenger" depart="755.05" departLane="best" from="-26346098#2" to="-157801824#0"/>
    <trip id="veh225" type="veh_passenger" depart="758.42" departLane="best" departSpeed="max" from="-445026050#2" to="26346098#3"/>